100
Blob!
B 0.249891 -0.005248 1.731627
B -0.320989 0.295185 1.795974
B 0.059925 -0.598267 1.824732
B 0.446878 0.568219 1.837641
B -0.815141 -0.151118 1.840600
B 0.799896 -0.508891 1.836643
B -0.261231 0.993547 1.827044
B -0.510052 -1.002639 1.813163
B 1.142032 0.409378 1.795572
B -1.182417 0.485634 1.774693
B 0.585533 -1.239496 1.751256
B 0.436669 1.363721 1.725192
B -1.292753 -0.759197 1.697019
B 1.539713 -0.341747 1.666954
B -0.930714 1.328885 1.634917
B -0.209381 -1.682267 1.601449
B 1.344237 1.121675 1.566369
B -1.793949 0.068942 1.529882
B 1.323273 -1.314044 1.492272
B -0.080734 1.898693 1.453284
B -1.244226 -1.505871 1.413339
B 1.990109 0.261818 1.372359
B -1.670699 1.162107 1.330315
B 0.465924 -2.040977 1.287560
B 1.064786 1.840277 1.243831
B -2.055094 -0.663638 1.199376
B 2.006689 -0.928510 1.154271
B -0.856137 2.057867 1.108349
B -0.760303 -2.141226 1.061940
B 2.044478 1.065624 1.014880
B -2.246248 0.588547 0.967240
B 1.283731 -1.989286 0.919206
B 0.411327 2.345601 0.870580
B -1.822623 -1.423035 0.790175
B 2.432728 -0.205867 0.772234
B -1.659661 1.796535 0.722404
B 0.019992 -2.480310 0.672340
B 1.682777 1.841834 0.621919
B -2.492136 -0.237257 0.571204
B 1.863693 -1.413659 0.481700
B -0.394358 2.202993 0.417084
B -1.351639 -2.165820 0.417829
B 2.480004 0.672705 0.366302
B -2.281679 1.169304 0.314629
B 0.905265 -2.425456 0.262882
B 0.870321 2.114524 0.189158
B -1.974438 -0.944920 0.137846
B 2.107198 -0.652382 0.093901
B -1.205579 2.064269 0.052723
B -0.537908 -2.547254 0.003165
B 2.126433 1.500326 -0.048780
B -2.569556 0.315752 -0.100672
B 1.430326 -1.676374 -0.125782
B 0.087237 2.183535 -0.169533
B -1.525648 -1.561546 -0.213167
B 2.281799 0.111169 -0.269235
B -1.970087 1.628613 -0.358544
B 0.361129 -2.535510 -0.409622
B 1.393713 2.008179 -0.441662
B -2.075440 -0.484865 -0.428753
B 1.940874 -1.100403 -0.493662
B -0.643595 2.001401 -0.513320
B -0.941179 -2.085945 -0.607964
B 2.272277 0.955917 -0.710519
B -2.291614 0.808848 -0.759453
B 1.009352 -1.888487 -0.710737
B 0.512062 1.947783 -0.718697
B -1.820999 -1.193960 -0.830980
B 2.042800 -0.344592 -0.836054
B -1.416741 1.815330 -0.997668
B -0.169160 -2.279922 -1.043773
B 1.651472 1.530715 -1.089085
B -1.942398 -0.024563 -0.995438
B 1.434833 -1.287044 -1.033811
B -0.175746 1.870505 -1.071307
B -1.103279 -1.484283 -1.108105
B 2.038114 0.374687 -1.306104
B -1.710385 1.063906 -1.347043
B 0.540589 -1.911957 -1.387132
B 0.845744 1.648359 -1.366196
B -1.610446 -0.614389 -1.340521
B 1.568972 -0.631707 -1.373654
B -0.732061 1.535430 -1.471039
B -0.493737 -1.661328 -1.571360
B 1.447536 0.848412 -1.604358
B -1.573035 0.325842 -1.635945
B 0.913865 -1.267268 -1.665965
B 0.184381 1.473680 -1.694101
B -1.070722 -0.932675 -1.720463
B 1.359066 -0.047605 -1.744613
B -0.907274 0.887255 -1.766371
B 0.075148 -1.203791 -1.785568
B 0.715487 0.860451 -1.801568
B -1.012550 -0.152972 -1.814087
B 0.782544 -0.532850 -1.822351
B -0.184142 0.808823 -1.825271
B -0.346579 -0.638357 -1.821455
B 0.577891 0.183114 -1.808022
B -0.405152 0.180178 -1.779176
B 0.107146 -0.235901 -1.715376
