100
Blob!
B 0.180777 -0.005367 1.236427
B -0.232243 0.213996 1.310657
B 0.046326 -0.443955 1.349334
B 0.335702 0.422902 1.372321
B -0.611517 -0.115099 1.385364
B 0.607703 -0.386814 1.391493
B -0.197084 0.755353 1.392132
B -0.388521 -0.768587 1.388370
B 0.879517 0.313301 1.381018
B -0.910472 0.373411 1.370401
B 0.455028 -0.960864 1.357134
B 0.340901 1.057879 1.341410
B -1.005207 -0.592549 1.323461
B 1.204154 -0.268156 1.303658
B -0.726967 1.039202 1.281971
B -0.162657 -1.321234 1.258708
B 1.058745 0.880825 1.233975
B -1.411849 0.053157 1.207779
B 1.046149 -1.038465 1.180410
B -0.062188 1.500249 1.151792
B -0.983859 -1.193823 1.122075
B 1.580233 0.206485 1.091397
B -1.325567 0.922030 1.059674
B 0.372154 -1.624584 1.027130
B 0.849666 1.464543 0.993737
B -1.637139 -0.530283 0.959523
B 1.603418 -0.742366 0.924656
B -0.682583 1.643400 0.889041
B -0.606636 -1.713845 0.852818
B 1.638476 0.852039 0.816025
B -1.798478 0.470546 0.778621
B 1.031017 -1.596484 0.740763
B 0.331706 1.881518 0.702392
B -1.522619 -1.190724 0.663570
B 1.956709 -0.166578 0.624378
B -1.333168 1.443752 0.584757
B 0.017587 -1.996850 0.544822
B 1.356346 1.481736 0.504567
B -2.005852 -0.192148 0.463999
B 1.629285 -1.235807 0.423207
B -0.359057 2.009257 0.382154
B -1.088525 -1.747665 0.340904
B 2.002170 0.541517 0.299485
B -1.839715 0.942480 0.257893
B 0.732089 -1.958733 0.216190
B 0.795175 1.929769 0.174376
B -1.884207 -0.902146 0.132482
B 2.011684 -0.622958 0.090541
B -1.053836 1.805509 0.048564
B -0.432999 -2.058396 0.006584
B 1.719100 1.210672 -0.035380
B -2.073948 0.253893 -0.077297
B 1.365639 -1.600402 -0.119155
B 0.083635 2.083972 -0.160918
B -1.455859 -1.490715 -0.202564
B 2.083645 0.101041 -0.244087
B -1.588829 1.313502 -0.285425
B 0.292754 -2.047215 -0.326596
B 1.170858 1.684383 -0.367552
B -1.980059 -0.462906 -0.408253
B 1.771330 -1.004302 -0.448725
B -0.613648 1.909175 -0.488877
B -0.821058 -1.822711 -0.528725
B 1.831099 0.768508 -0.568251
B -1.842648 0.649796 -0.607363
B 0.920509 -1.721358 -0.646123
B 0.488588 1.856817 -0.684430
B -1.586522 -1.041641 -0.722264
B 1.860476 -0.314232 -0.759657
B -1.134801 1.454738 -0.796465
B -0.134189 -1.827984 -0.832754
B 1.323651 1.224357 -0.868455
B -1.764806 -0.022825 -0.903470
B 1.304266 -1.169779 -0.937888
B -0.158806 1.697999 -0.971534
B -1.000519 -1.347567 -1.004427
B 1.624190 0.297129 -1.036564
B -1.358302 0.844734 -1.067758
B 0.430667 -1.519041 -1.098110
B 0.700719 1.362044 -1.127468
B -1.389235 -0.531190 -1.155741
B 1.353980 -0.545530 -1.182992
B -0.601267 1.263012 -1.208968
B -0.386925 -1.308372 -1.233702
B 1.138139 0.664881 -1.257098
B -1.230443 0.254012 -1.278916
B 0.715546 -0.991286 -1.299219
B 0.145323 1.146870 -1.317712
B -0.829955 -0.725630 -1.334247
B 1.053790 -0.038161 -1.348738
B -0.698062 0.683067 -1.360740
B 0.059431 -0.926030 -1.370115
B 0.548945 0.656683 -1.376430
B -0.768593 -0.117718 -1.379068
B 0.593740 -0.404458 -1.377527
B -0.136471 0.606277 -1.370626
B -0.256381 -0.477136 -1.356835
B 0.428275 0.133580 -1.333510
B -0.292761 0.129573 -1.294607
B 0.078376 -0.169456 -1.220646
