100
Blob!
B 0.483581 -0.949507 -0.382821
B -0.087633 -1.047515 -0.211683
B 0.195145 -0.089299 -1.110272
B -0.951246 -0.062354 -0.308781
B 0.199822 -0.067807 1.072768
B 1.096486 0.373924 -0.341279
B -0.632781 0.578686 -0.608503
B -0.843943 0.490130 0.267010
B -0.601556 -0.788584 0.221375
B 0.722017 -0.435139 -0.810722
B 1.097412 -0.421761 -0.207951
B 0.696191 0.943979 0.041850
B -0.001987 -1.076527 -0.002306
B -0.917172 -0.370477 0.084538
B -0.899503 0.460447 0.002435
B 0.127457 0.733280 0.814840
B 0.610356 -0.942422 0.165081
B -0.064780 0.458941 -1.011731
B -0.285315 0.496419 -0.928140
B -0.434088 -0.360246 0.860366
B 1.116307 0.438935 -0.134968
B -0.821347 0.377847 0.447589
B 0.761646 -0.479054 -0.750287
B -0.966737 0.254409 -0.049881
B -0.300840 -0.787828 0.608656
B 0.809221 0.355520 0.756191
B 0.710908 -0.888718 -0.171236
B -0.380045 1.001685 -0.075416
B -0.539886 -0.851623 -0.208504
B 0.293346 0.690548 -0.868817
B 1.000006 0.297007 0.558160
B 0.894811 -0.626070 0.397883
B 0.980386 -0.213265 -0.646702
B 0.514501 0.897929 0.498035
B -0.457081 0.958370 -0.094563
B -0.951678 -0.227673 -0.190377
B -0.200591 0.341776 0.985187
B -0.247628 -0.515190 0.874874
B 0.468312 0.938871 0.459592
B 0.622564 -0.707048 0.627125
B 0.619835 0.957800 0.229468
B 0.067350 0.784403 0.767406
B -0.348572 -0.077616 0.976950
B -0.033496 -0.372476 0.999014
B -0.712649 -0.557067 -0.475153
B -0.296942 0.785778 -0.694397
B -0.124658 -0.004547 1.055230
B -0.693442 -0.481407 0.546610
B -0.794244 0.091742 -0.645292
B -0.131390 0.844249 -0.703989
B -0.493853 -0.886911 0.155501
B 0.201470 0.740666 0.803263
B 0.985359 0.663754 -0.162202
B 1.011301 0.235706 -0.606221
B 0.340125 -1.033383 0.204530
B 0.350126 -0.688986 -0.826166
B -0.368247 -0.673366 0.692156
B -0.189707 -0.862709 -0.607890
B -0.553436 -0.331669 -0.826383
B -0.901545 -0.370737 0.186423
B -0.903591 -0.410812 -0.092842
B 1.099163 0.011558 -0.494029
B 0.055634 0.028299 1.078783
B -0.757766 -0.581657 0.301955
B 0.270839 1.102054 0.056852
B 0.792018 0.877587 -0.037744
B -0.663570 0.513950 -0.626839
B -0.572044 -0.564089 -0.659751
B 0.644714 -0.920710 -0.218315
B 1.178534 0.258651 -0.076886
B 0.665059 -0.864151 0.327106
B 0.376951 0.853106 -0.681335
B 0.989677 -0.613993 -0.196455
B 0.892182 -0.637877 0.384213
B -0.171865 -0.091138 1.038661
B -0.315011 -0.626781 -0.804263
B -0.496284 0.867525 -0.369507
B 0.908411 0.747918 0.163863
B 1.159472 0.114324 0.284426
B -0.620258 -0.191067 0.778957
B -0.563103 0.879569 0.110745
B 0.959025 -0.021916 -0.713771
B -0.934353 -0.310230 0.116401
B -0.884570 -0.458152 -0.045782
B -0.704798 -0.512116 0.500699
B 0.440384 0.226074 -1.046384
B 0.365897 0.547430 -0.947548
B -0.687297 0.631604 0.429339
B -0.887252 -0.440172 -0.129447
B -0.749543 0.608977 0.335508
B -0.793196 0.261413 0.563651
B 0.920168 0.694327 -0.319799
B -0.950403 -0.075126 0.269675
B -0.936692 0.284147 -0.241644
B 0.068429 0.038852 1.079127
B -0.707930 -0.084300 -0.750777
B 1.187575 -0.170072 0.061988
B 0.158852 -0.836743 0.670796
B -0.957584 -0.217955 -0.165478
B 0.732224 0.515733 -0.774644
