400
Blob!
B 0.018246 -0.005298 0.157112 1
B -0.005955 0.007129 0.156352 1
B 0.009736 -0.029046 0.155579 1
B 0.024816 0.017132 0.154805 1
B -0.023973 -0.010919 0.154007 1
B 0.037656 -0.024373 0.153210 1
B -0.002444 0.032094 0.152402 1
B -0.011549 -0.042309 0.151572 1
B 0.049385 0.009973 0.150750 1
B -0.035893 0.012628 0.149902 1
B 0.028682 -0.050197 0.149047 1
B 0.023158 0.044300 0.148194 1
B -0.039301 -0.032551 0.147308 1
B 0.062821 -0.017397 0.146434 1
B -0.026121 0.042640 0.145540 1
B -0.000122 -0.065518 0.144626 1
B 0.055577 0.035157 0.143727 1
B -0.056999 -0.002679 0.142791 1
B 0.054879 -0.052250 0.141859 1
B 0.004425 0.063086 0.140924 1
B -0.037350 -0.059295 0.139954 1
B 0.079046 0.004356 0.139005 1
B -0.052967 0.036795 0.138026 1
B 0.024260 -0.078940 0.137037 1
B 0.045950 0.061671 0.136061 1
B -0.067398 -0.029305 0.135043 1
B 0.080633 -0.038965 0.134042 1
B -0.024058 0.070268 0.133027 1
B -0.020556 -0.083876 0.131986 1
B 0.082844 0.034294 0.130968 1
B -0.075989 0.016670 0.129913 1
B 0.055242 -0.079217 0.128861 1
B 0.022704 0.082765 0.127815 1
B -0.064056 -0.060916 0.126730 1
B 0.099446 -0.012840 0.125671 1
B -0.055885 0.063254 0.124588 1
B 0.008173 -0.100081 0.123490 1
B 0.072146 0.065917 0.122415 1
B -0.089295 -0.014365 0.121300 1
B 0.086235 -0.064861 0.120201 1
B -0.010311 0.092919 0.119098 1
B -0.046111 -0.090865 0.117965 1
B 0.106224 0.021797 0.116863 1
B -0.084393 0.041832 0.115729 1
B 0.044054 -0.103293 0.114596 1
B 0.047404 0.092602 0.113478 1
B -0.088795 -0.051099 0.112324 1
B 0.110721 -0.036997 0.111196 1
B -0.047502 0.088611 0.110055 1
B -0.015356 -0.112800 0.108897 1
B 0.098052 0.059031 0.107767 1
B -0.103463 0.008452 0.106605 1
B 0.080904 -0.091241 0.105456 1
B 0.011698 0.108526 0.104314 1
B -0.072890 -0.087150 0.103145 1
B 0.123242 0.000700 0.102006 1
B -0.082351 0.068928 0.100847 1
B 0.023971 -0.121691 0.099686 1
B 0.074716 0.092281 0.098547 1
B -0.108544 -0.032135 0.097379 1
B 0.112162 -0.064412 0.096234 1
B -0.029760 0.109664 0.095087 1
B -0.042764 -0.116042 0.093924 1
B 0.120344 0.042619 0.092791 1
B -0.108540 0.035740 0.091636 1
B 0.065928 -0.114697 0.090491 1
B 0.038738 0.115457 0.089360 1
B -0.097438 -0.073713 0.088207 1
B 0.132032 -0.025955 0.087081 1
B -0.070552 0.094483 0.085947 1
B -0.002161 -0.132343 0.084809 1
B 0.101170 0.082213 0.083696 1
B -0.121053 -0.006661 0.082563 1
B 0.103913 -0.091647 0.081448 1
B -0.005086 0.124009 0.080339 1
B -0.070664 -0.109698 0.079218 1
B 0.136483 0.018893 0.078123 1
B -0.104176 0.064179 0.077017 1
B 0.043298 -0.132582 0.075917 1
B 0.067572 0.113133 0.074836 1
B -0.117016 -0.052322 0.073738 1
B 0.131801 -0.055029 0.072663 1
B -0.050540 0.115683 0.071588 1
B -0.031319 -0.134251 0.070510 1
B 0.123895 0.063718 0.069454 1
B -0.125134 0.022424 0.068388 1
B 0.087072 -0.115794 0.067334 1
B 0.023758 0.130276 0.066291 1
B -0.096125 -0.094641 0.065239 1
B 0.144932 -0.009531 0.064209 1
B -0.091020 0.090831 0.063177 1
B 0.015472 -0.143204 0.062147 1
B 0.095271 0.101987 0.061135 1
B -0.129788 -0.025267 0.060115 1
B 0.122765 -0.083617 0.059111 1
B -0.024431 0.130560 0.058112 1
B -0.060638 -0.127417 0.057111 1
B 0.140810 0.038733 0.056128 1
B -0.120578 0.052310 0.055142 1
B 0.063388 -0.134671 0.054164 1
B 0.054027 0.128055 0.053199 1
B -0.116878 -0.072424 0.052228 1
B 0.145089 -0.039991 0.051274 1
B -0.070429 0.113354 0.050322 1
B -0.014984 -0.145773 0.049372 1
B 0.119435 0.083174 0.048437 1
B -0.134787 0.004994 0.047499 1
B 0.105877 -0.109280 0.046572 1
B 0.005436 0.137979 0.045653 1
B -0.087653 -0.112590 0.044733 1
B 0.150624 0.009467 0.043826 1
B -0.107931 0.080517 0.042921 1
B 0.034927 -0.146840 0.042022 1
B 0.083247 0.117690 0.041132 1
B -0.131351 -0.044964 0.040243 1
B 0.137100 -0.070030 0.039364 1
B -0.044161 0.130054 0.038490 1
B -0.045649 -0.140240 0.037618 1
B 0.138261 0.058289 0.036757 1
B -0.131769 0.036086 0.035898 1
B 0.082560 -0.130120 0.035045 1
B 0.036746 0.137514 0.034200 1
B -0.110387 -0.091016 0.033357 1
B 0.152730 -0.021841 0.032522 1
B -0.088257 0.105004 0.031691 1
B 0.003841 -0.151527 0.030865 1
B 0.109323 0.100065 0.030046 1
B -0.138607 -0.014313 0.029230 1
B 0.121663 -0.097519 0.028421 1
B -0.014160 0.139842 0.027616 1
B -0.074371 -0.127116 0.026816 1
B 0.150521 0.029155 0.026022 1
B -0.121063 0.065851 0.025232 1
B 0.054508 -0.144782 0.024447 1
B 0.067346 0.129309 0.023666 1
B -0.127365 -0.064248 0.022891 1
B 0.147099 -0.053058 0.022120 1
B -0.062967 0.124187 0.021354 1
B -0.027774 -0.148525 0.020593 1
B 0.130579 0.076439 0.019835 1
B -0.138268 0.017481 0.019083 1
B 0.099881 -0.120704 0.018335 1
B 0.017587 0.142175 0.017590 1
B -0.099330 -0.107343 0.016852 1
B 0.155517 -0.002312 0.016116 1
B -0.103445 0.092414 0.015385 1
B 0.023552 -0.152416 0.014658 1
B 0.095322 0.113977 0.013934 1
B -0.137594 -0.034024 0.013216 1
B 0.134173 -0.082244 0.012501 1
B -0.033692 0.136944 0.011789 1
B -0.057966 -0.138108 0.011083 1
B 0.145772 0.048330 0.010378 1
B -0.130442 0.048465 0.009679 1
B 0.073149 -0.138228 0.008984 1
B 0.049140 0.136998 0.008289 1
B -0.119067 -0.082185 0.007603 1
B 0.153031 -0.034200 0.006916 1
B -0.080043 0.114225 0.006234 1
B -0.008438 -0.152648 0.005557 1
B 0.119047 0.092505 0.004880 1
B -0.140548 -0.002162 0.004210 1
B 0.114792 -0.107709 0.003541 1
B -0.002189 0.142597 0.002874 1
B -0.084990 -0.120966 0.002215 1
B 0.154083 0.017421 0.001554 1
B -0.115664 0.076856 0.000899 1
B 0.043063 -0.149141 0.000247 1
B 0.078687 0.124691 -0.000405 1
B -0.132508 -0.053143 -0.001049 1
B 0.143288 -0.064682 -0.001695 1
B -0.052255 0.130094 -0.002336 1
B -0.039632 -0.145545 -0.002972 1
B 0.137224 0.066176 -0.003611 1
B -0.136138 0.029519 -0.004241 1
B 0.090121 -0.128060 -0.004871 1
B 0.029746 0.140910 -0.005501 1
B -0.107368 -0.098135 -0.006122 1
B 0.155128 -0.014529 -0.006747 1
B -0.094838 0.101098 -0.007366 1
B 0.011337 -0.152913 -0.007981 1
B 0.104609 0.106020 -0.008600 1
B -0.138980 -0.021871 -0.009209 1
B 0.126912 -0.092088 -0.009820 1
B -0.021666 0.139215 -0.010430 1
B -0.068322 -0.131586 -0.011031 1
B 0.148920 0.036498 -0.011638 1
B -0.124696 0.059284 -0.012237 1
B 0.061575 -0.142243 -0.012835 1
B 0.060361 0.132063 -0.013435 1
B -0.123936 -0.070931 -0.014025 1
B 0.148940 -0.045764 -0.014621 1
B -0.069172 0.119923 -0.015211 1
B -0.020285 -0.149428 -0.015796 1
B 0.125546 0.082080 -0.016387 1
B -0.138222 0.009907 -0.016968 1
B 0.104875 -0.114977 -0.017552 1
B 0.010034 0.141183 -0.018135 1
B -0.092993 -0.111615 -0.018709 1
B 0.153591 0.005115 -0.019291 1
B -0.106932 0.085553 -0.019865 1
B 0.030743 -0.149581 -0.020436 1
B 0.088029 0.116632 -0.021013 1
B -0.133883 -0.040875 -0.021578 1
B 0.135952 -0.074618 -0.022149 1
B -0.040110 0.132399 -0.022717 1
B -0.050111 -0.138978 -0.023278 1
B 0.140449 0.054228 -0.023847 1
B -0.130381 0.040485 -0.024407 1
B 0.078439 -0.132192 -0.024967 1
B 0.041134 0.135999 -0.025530 1
B -0.112389 -0.086787 -0.026083 1
B 0.151096 -0.026273 -0.026643 1
B -0.083891 0.106981 -0.027198 1
B -0.000698 -0.149788 -0.027748 1
B 0.111322 0.095541 -0.028306 1
B -0.136785 -0.009612 -0.028853 1
B 0.116965 -0.099595 -0.029404 1
B -0.009255 0.137965 -0.029955 1
B -0.076585 -0.122231 -0.030497 1
B 0.148627 0.024010 -0.031049 1
B -0.115991 0.068257 -0.031592 1
B 0.049082 -0.142913 -0.032134 1
B 0.069993 0.124061 -0.032682 1
B -0.125569 -0.058506 -0.033218 1
B 0.141691 -0.055998 -0.033762 1
B -0.056888 0.122514 -0.034302 1
B -0.031066 -0.142980 -0.034836 1
B 0.129081 0.070012 -0.035380 1
B -0.132616 0.021175 -0.035912 1
B 0.093096 -0.119440 -0.036448 1
B 0.021722 0.136453 -0.036987 1
B -0.098363 -0.100195 -0.037515 1
B 0.149770 -0.006925 -0.038053 1
B -0.095940 0.091802 -0.038584 1
B 0.018421 -0.146696 -0.039112 1
B 0.095120 0.106133 -0.039648 1
B -0.131955 -0.028342 -0.040173 1
B 0.126013 -0.082513 -0.040704 1
B -0.027439 0.131443 -0.041234 1
B -0.058768 -0.129661 -0.041756 1
B 0.140473 0.041495 -0.042289 1
B -0.121741 0.049857 -0.042812 1
B 0.065720 -0.133200 -0.043337 1
B 0.051167 0.128090 -0.043867 1
B -0.114382 -0.074155 -0.044385 1
B 0.143968 -0.036909 -0.044913 1
B -0.071420 0.109950 -0.045436 1
B -0.011878 -0.143489 -0.045955 1
B 0.115252 0.083307 -0.046483 1
B -0.131354 0.002050 -0.047000 1
B 0.105042 -0.104468 -0.047523 1
B 0.002822 0.133437 -0.048047 1
B -0.082377 -0.110690 -0.048561 1
B 0.145031 0.011589 -0.049087 1
B -0.104900 0.074940 -0.049605 1
B 0.036388 -0.140277 -0.050122 1
B 0.077529 0.113486 -0.050646 1
B -0.123914 -0.045610 -0.051159 1
B 0.131699 -0.064347 -0.051681 1
B -0.043864 0.121852 -0.052200 1
B -0.040185 -0.133632 -0.052713 1
B 0.129420 0.056936 -0.053237 1
B -0.123968 0.031016 -0.053751 1
B 0.080045 -0.120785 -0.054268 1
B 0.032231 0.128559 -0.054790 1
B -0.100713 -0.087243 -0.055300 1
B 0.142679 -0.018043 -0.055822 1
B -0.083160 0.095147 -0.056339 1
B 0.006754 -0.140455 -0.056852 1
B 0.099447 0.093602 -0.057375 1
B -0.126605 -0.016187 -0.057886 1
B 0.113805 -0.087802 -0.058405 1
B -0.014863 0.127018 -0.058925 1
B -0.064997 -0.117846 -0.059436 1
B 0.137004 0.028568 -0.059959 1
B -0.110389 0.056997 -0.060474 1
B 0.052514 -0.130714 -0.060989 1
B 0.059182 0.117266 -0.061512 1
B -0.112901 -0.060741 -0.062024 1
B 0.133740 -0.045759 -0.062545 1
B -0.057871 0.109489 -0.063064 1
B -0.021522 -0.133917 -0.063578 1
B 0.115819 0.069698 -0.064103 1
B -0.122497 0.012441 -0.064617 1
B 0.091449 -0.106069 -0.065137 1
B 0.013907 0.125349 -0.065661 1
B -0.085014 -0.097189 -0.066175 1
B 0.137763 -0.000135 -0.066701 1
B -0.091564 0.078606 -0.067220 1
B 0.024085 -0.133878 -0.067738 1
B 0.082213 0.100391 -0.068267 1
B -0.118427 -0.032787 -0.068783 1
B 0.118918 -0.070032 -0.069309 1
B -0.030586 0.117315 -0.069834 1
B -0.046852 -0.121239 -0.070353 1
B 0.125866 0.043272 -0.070884 1
B -0.112032 0.038640 -0.071406 1
B 0.066064 -0.118245 -0.071932 1
B 0.040781 0.117148 -0.072464 1
B -0.099213 -0.073015 -0.072985 1
B 0.131862 -0.027483 -0.073518 1
B -0.068758 0.094707 -0.074047 1
B -0.003538 -0.130296 -0.074573 1
B 0.100081 0.079099 -0.075111 1
B -0.117166 -0.005085 -0.075638 1
B 0.099276 -0.089521 -0.076173 1
B -0.002998 0.118358 -0.076710 1
B -0.067808 -0.103368 -0.077239 1
B 0.129177 0.015993 -0.077781 1
B -0.096035 0.060902 -0.078316 1
B 0.039282 -0.123776 -0.078853 1
B 0.064177 0.103113 -0.079398 1
B -0.106901 -0.046909 -0.079933 1
B 0.119863 -0.051836 -0.080479 1
B -0.043498 0.104471 -0.081024 1
B -0.028668 -0.120392 -0.081563 1
B 0.111826 0.054849 -0.082117 1
B -0.109398 0.020641 -0.082660 1
B 0.076191 -0.103141 -0.083209 1
B 0.023140 0.112748 -0.083765 1
B -0.083186 -0.081589 -0.084311 1
B 0.125733 -0.010374 -0.084871 1
B -0.075690 0.077910 -0.085425 1
B 0.012869 -0.122492 -0.085979 1
B 0.082675 0.084316 -0.086546 1
B -0.107754 -0.020627 -0.087101 1
B 0.102718 -0.071677 -0.087667 1
B -0.017518 0.107422 -0.088235 1
B -0.049701 -0.104988 -0.088796 1
B 0.116820 0.029338 -0.089372 1
B -0.095807 0.042709 -0.089940 1
B 0.051309 -0.110112 -0.090513 1
B 0.046082 0.101025 -0.091095 1
B -0.092057 -0.057487 -0.091667 1
B 0.115922 -0.034025 -0.092252 1
B -0.052505 0.088589 -0.092836 1
B -0.011328 -0.114621 -0.093418 1
B 0.095060 0.062178 -0.094013 1
B -0.101836 0.003955 -0.094600 1
B 0.081746 -0.085657 -0.095195 1
B 0.007290 0.103453 -0.095797 1
B -0.065158 -0.085288 -0.096391 1
B 0.114783 0.004461 -0.097000 1
B -0.077468 0.059520 -0.097605 1
B 0.026514 -0.109978 -0.098212 1
B 0.064116 0.084125 -0.098832 1
B -0.093784 -0.032916 -0.099443 1
B 0.100526 -0.053148 -0.100067 1
B -0.028294 0.092122 -0.100693 1
B -0.031405 -0.100781 -0.101316 1
B 0.100332 0.038451 -0.101955 1
B -0.089587 0.024853 -0.102587 1
B 0.058621 -0.092593 -0.103228 1
B 0.028875 0.092814 -0.103878 1
B -0.073678 -0.062868 -0.104521 1
B 0.105763 -0.017680 -0.105180 1
B -0.055844 0.069533 -0.105839 1
B 0.003944 -0.102572 -0.106499 1
B 0.075527 0.063374 -0.107175 1
B -0.087975 -0.010033 -0.107845 1
B 0.080712 -0.065858 -0.108527 1
B -0.005207 0.087878 -0.109216 1
B -0.045316 -0.081955 -0.109902 1
B 0.097612 0.015261 -0.110607 1
B -0.071780 0.039867 -0.111309 1
B 0.035415 -0.091348 -0.112018 1
B 0.044896 0.076045 -0.112742 1
B -0.073849 -0.039721 -0.113461 1
B 0.090034 -0.034616 -0.114197 1
B -0.032810 0.071055 -0.114939 1
B -0.013826 -0.087872 -0.115682 1
B 0.078328 0.040492 -0.116445 1
B -0.074272 0.008500 -0.117206 1
B 0.058004 -0.069868 -0.117981 1
B 0.014033 0.075125 -0.118769 1
B -0.050462 -0.059415 -0.119556 1
B 0.085747 -0.004648 -0.120365 1
B -0.049377 0.046080 -0.121177 1
B 0.014853 -0.080294 -0.122000 1
B 0.052114 0.053715 -0.122842 1
B -0.063509 -0.018490 -0.123685 1
B 0.067682 -0.042789 -0.124549 1
B -0.010856 0.061315 -0.125426 1
B -0.022920 -0.065360 -0.126309 1
B 0.069055 0.017714 -0.127217 1
B -0.051403 0.018506 -0.128133 1
B 0.034237 -0.060907 -0.129066 1
B 0.024979 0.051632 -0.130021 1
B -0.041631 -0.034403 -0.130984 1
B 0.061266 -0.016613 -0.131975 1
B -0.022730 0.037150 -0.132981 1
B 0.001711 -0.054306 -0.134006 1
B 0.042790 0.024835 -0.135060 1
B -0.035227 -0.003882 -0.136129 1
B 0.035586 -0.032636 -0.137226 1
B 0.005747 0.029400 -0.138351 1
B -0.011128 -0.028180 -0.139499 1
B 0.030531 -0.002017 -0.140682 1
B -0.003480 0.002304 -0.141893 1
