100
Blob!
B 0.319798 -0.004505 2.226715
B -0.374640 0.344565 2.086978
B 0.068245 -0.691486 2.109760
B 0.491746 0.626798 2.023531
B -0.897025 -0.165547 2.022497
B 0.877342 -0.557943 2.014396
B -0.286935 1.089447 2.000660
B -0.558853 -1.096747 1.982757
B 1.247674 0.448075 1.960927
B -1.346472 0.553561 2.016502
B 0.664396 -1.407496 1.986960
B 0.494510 1.548347 1.954468
B -1.524118 -0.892966 1.994636
B 1.877136 -0.415260 2.028537
B -1.135473 1.620414 1.985750
B -0.256438 -2.044904 1.942448
B 1.630951 1.364096 1.896560
B -2.177862 0.085283 1.849792
B 1.601758 -1.590556 1.802089
B -0.099406 2.299039 1.752239
B -1.505878 -1.818911 1.702378
B 2.401561 0.317845 1.650870
B -2.017024 1.403443 1.598298
B 0.560052 -2.458762 1.545621
B 1.280457 2.217542 1.491128
B -2.474563 -0.796995 1.436571
B 2.411358 -1.114866 1.381239
B -1.030133 2.473707 1.324685
B -0.914584 -2.569693 1.268369
B 2.451401 1.280180 1.210785
B -2.695078 0.707265 1.152867
B 1.537190 -2.382886 1.094811
B 0.459250 2.624648 0.969754
B -1.822623 -1.423035 0.790175
B 2.814278 -0.237106 0.888180
B -1.986624 2.150089 0.856919
B 0.022265 -2.964540 0.796900
B 2.009428 2.202738 0.736144
B -2.492136 -0.237257 0.571204
B 1.863693 -1.413659 0.481700
B -0.394358 2.202993 0.417084
B -1.456980 -2.333203 0.447594
B 2.958124 0.804365 0.430071
B -2.723887 1.396412 0.368238
B 1.078376 -2.892498 0.306515
B 0.870321 2.114524 0.189158
B -1.974438 -0.944920 0.137846
B 2.107198 -0.652382 0.093901
B -1.205579 2.064269 0.052723
B -0.643218 -3.035994 -0.003353
B 2.533363 1.790388 -0.065268
B -2.668657 0.328132 -0.105737
B 1.430326 -1.676374 -0.125782
B 0.087237 2.183535 -0.169533
B -1.525648 -1.561546 -0.213167
B 2.281799 0.111169 -0.269235
B -2.350928 1.943527 -0.434630
B 0.429113 -3.023316 -0.495776
B 1.393713 2.008179 -0.441662
B -2.075440 -0.484865 -0.428753
B 1.940874 -1.100403 -0.493662
B -0.643595 2.001401 -0.513320
B -0.941179 -2.085945 -0.607964
B 2.712394 1.143498 -0.855811
B -2.739609 0.967919 -0.914361
B 1.009352 -1.888487 -0.710737
B 0.512062 1.947783 -0.718697
B -1.820999 -1.193960 -0.830980
B 2.042800 -0.344592 -0.836054
B -1.416741 1.815330 -0.997668
B -0.204476 -2.730381 -1.257873
B 1.782200 1.653009 -1.178274
B -1.942398 -0.024563 -0.995438
B 1.434833 -1.287044 -1.033811
B -0.175746 1.870505 -1.071307
B -1.103279 -1.484283 -1.108105
B 2.120668 0.390160 -1.360375
B -2.060884 1.282493 -1.628770
B 0.606199 -2.146621 -1.562141
B 0.845744 1.648359 -1.366196
B -1.610446 -0.614389 -1.340521
B 1.568972 -0.631707 -1.373654
B -0.732061 1.535430 -1.471039
B -0.557595 -1.871706 -1.775475
B 1.754596 1.031412 -1.953964
B -1.913442 0.397825 -1.995030
B 0.953359 -1.322176 -1.739622
B 0.184381 1.473680 -1.694101
B -1.118625 -0.973809 -1.798008
B 1.601168 -0.054593 -2.062948
B -1.114790 1.090187 -2.173502
B 0.090433 -1.478551 -2.203028
B 0.880096 1.062935 -2.228070
B -1.254383 -0.187154 -2.250376
B 0.969224 -0.659279 -2.268630
B -0.231593 1.009833 -2.280621
B -0.436133 -0.797081 -2.287058
B 0.725433 0.232855 -2.283161
B -0.516458 0.230953 -2.263978
B 0.135181 -0.300616 -2.210376
