400
Pore!
B 0.458023 -2.683824 1.465802
B 0.295558 -2.600380 1.461312
B 0.401064 -2.843677 1.456693
B 0.502687 -2.532580 1.452093
B 0.173390 -2.721865 1.447279
B 0.590050 -2.812866 1.442449
B 0.318495 -2.430392 1.437570
B 0.256672 -2.935202 1.432449
B 0.670871 -2.579889 1.427433
B 0.090219 -2.561760 1.422194
B 0.530634 -2.990310 1.416852
B 0.492955 -2.344634 1.411584
B 0.065396 -2.870621 1.405983
B 0.765614 -2.766779 1.400481
B 0.154739 -2.354354 1.394854
B 0.333569 -3.098542 1.388980
B 0.717532 -2.404688 1.383286
B -0.059749 -2.665863 1.377252
B 0.713974 -3.008751 1.371214
B 0.364500 -2.209682 1.365212
B 0.074540 -3.058953 1.358835
B 0.883691 -2.616554 1.352661
B -0.035543 -2.390599 1.346250
B 0.503060 -3.197873 1.339666
B 0.654682 -2.215487 1.333271
B -0.138603 -2.852127 1.326458
B 0.899055 -2.919903 1.319765
B 0.164024 -2.152868 1.313017
B 0.188602 -3.236963 1.305925
B 0.917051 -2.404573 1.299104
B -0.203681 -2.528868 1.291936
B 0.723720 -3.206560 1.284719
B 0.493470 -2.059933 1.277644
B -0.121684 -3.078609 1.270130
B 1.039360 -2.737273 1.262851
B -0.065387 -2.196007 1.255401
B 0.390894 -3.359511 1.247705
B 0.847359 -2.175239 1.240292
B -0.306231 -2.748865 1.232461
B 0.949883 -3.110254 1.224722
B 0.257967 -1.979384 1.217034
B 0.000993 -3.298568 1.208953
B 1.096072 -2.488736 1.201182
B -0.276234 -2.344471 1.193136
B 0.649811 -3.390764 1.184983
B 0.674043 -1.976383 1.177069
B -0.310745 -3.015427 1.168724
B 1.133869 -2.913324 1.160596
B -0.013395 -2.002527 1.152409
B 0.220044 -3.464959 1.143932
B 1.044640 -2.215608 1.135789
B -0.422589 -2.583886 1.127301
B 0.921556 -3.310670 1.118854
B 0.416334 -1.852295 1.110564
B -0.201947 -3.282702 1.101887
B 1.233578 -2.639690 1.093514
B -0.273200 -2.139674 1.084980
B 0.507054 -3.538390 1.076292
B 0.879862 -1.966309 1.067908
B -0.468209 -2.881617 1.059159
B 1.157283 -3.119263 1.050581
B 0.110715 -1.835651 1.042058
B 0.014827 -3.501959 1.033241
B 1.220327 -2.329248 1.024761
B -0.473367 -2.380241 1.016049
B 0.819148 -3.494558 1.007325
B 0.617437 -1.787699 0.998833
B -0.393470 -3.192254 0.990010
B 1.311944 -2.837198 0.981445
B -0.195384 -1.941196 0.972839
B 0.314151 -3.630495 0.964058
B 1.084420 -2.030868 0.955597
B -0.573987 -2.694293 0.946873
B 1.106592 -3.328981 0.938259
B 0.291433 -1.716450 0.929787
B -0.199185 -3.465727 0.921054
B 1.352552 -2.502269 0.912620
B -0.452087 -2.162858 0.904071
B 0.654900 -3.639415 0.895470
B 0.837088 -1.793654 0.887132
B -0.550560 -3.037791 0.878544
B 1.321639 -3.057934 0.870150
B -0.051689 -1.772453 0.861809
B 0.093462 -3.656157 0.853301
B 1.264045 -2.162800 0.845084
B -0.615828 -2.474778 0.836713
B 0.987411 -3.518686 0.828394
B 0.508532 -1.658403 0.820262
B -0.398191 -3.360219 0.811928
B 1.426726 -2.715616 0.803827
B -0.361073 -1.955461 0.795708
B 0.446605 -3.729630 0.787518
B 1.051759 -1.869426 0.779578
B -0.656650 -2.835787 0.771480
B 1.261834 -3.278693 0.763507
B 0.142763 -1.650868 0.755643
B -0.132239 -3.612993 0.747643
B 1.400573 -2.348380 0.739878
B -0.589832 -2.245331 0.732051
B 0.812009 -3.669584 0.724235
B 0.740355 -1.666863 0.716609
B -0.562852 -3.196204 0.708850
B 1.436100 -2.948352 0.701253
B -0.209576 -1.777839 0.693703
B 0.214373 -3.757102 0.686085
B 1.241331 -2.007287 0.678673
B -0.702340 -2.605448 0.671186
B 1.138710 -3.479151 0.663767
B 0.369735 -1.587063 0.656477
B -0.342530 -3.505611 0.649096
B 1.482260 -2.570426 0.641881
B -0.499044 -2.026384 0.634672
B 0.596413 -3.768888 0.627455
B 0.966579 -1.740319 0.620401
B -0.679406 -2.988490 0.613280
B 1.380676 -3.180392 0.606259
B -0.011147 -1.644634 0.599315
B -0.022057 -3.720331 0.592325
B 1.390399 -2.194993 0.585483
B -0.684656 -2.366076 0.578631
B 0.963141 -3.643254 0.571811
B 0.610459 -1.585417 0.565109
B -0.520795 -3.343470 0.558364
B 1.503381 -2.810819 0.551723
B -0.351490 -1.835015 0.545127
B 0.357990 -3.809577 0.538525
B 1.169785 -1.872176 0.532039
B -0.739590 -2.753609 0.525545
B 1.265592 -3.394101 0.519104
B 0.218582 -1.565267 0.512743
B -0.244948 -3.622978 0.506369
B 1.488483 -2.417894 0.500084
B -0.605802 -2.135421 0.493831
B 0.748705 -3.759542 0.487597
B 0.847282 -1.645158 0.481447
B -0.654671 -3.139012 0.475304
B 1.463308 -3.052128 0.469214
B -0.158444 -1.684395 0.463181
B 0.113835 -3.789633 0.457160
B 1.336109 -2.052378 0.451205
B -0.740034 -2.508236 0.445283
B 1.099634 -3.575034 0.439390
B 0.463446 -1.544396 0.433556
B -0.439358 -3.472522 0.427747
B 1.529701 -2.660441 0.421978
B -0.471932 -1.928822 0.416258
B 0.510233 -3.820963 0.410564
B 1.064586 -1.761448 0.404912
B -0.735989 -2.906276 0.399306
B 1.365541 -3.278576 0.393721
B 0.066909 -1.583729 0.388184
B -0.120218 -3.711207 0.382686
B 1.455405 -2.268663 0.377207
B -0.681555 -2.268175 0.371784
B 0.894056 -3.712185 0.366386
B 0.707776 -1.582507 0.361013
B -0.593498 -3.279148 0.355702
B 1.512296 -2.907218 0.350394
B -0.292134 -1.758764 0.345135
B 0.262787 -3.824506 0.339920
B 1.249294 -1.926337 0.334703
B -0.760519 -2.659887 0.329559
B 1.216849 -3.476604 0.324424
B 0.310463 -1.538406 0.319310
B -0.330213 -3.579852 0.314268
B 1.521190 -2.507544 0.309206
B -0.568475 -2.047684 0.304208
B 0.661639 -3.798031 0.299244
B 0.937115 -1.676500 0.294267
B -0.698857 -3.054859 0.289379
B 1.438133 -3.143682 0.284476
B -0.077575 -1.634671 0.279603
B 0.020893 -3.770792 0.274802
B 1.391164 -2.129558 0.269961
B -0.727654 -2.414272 0.265204
B 1.026527 -3.635230 0.260460
B 0.557985 -1.550227 0.255703
B -0.504503 -3.403833 0.251046
B 1.530501 -2.755085 0.246346
B -0.408004 -1.858995 0.241698
B 0.415914 -3.828468 0.237108
B 1.138750 -1.820255 0.232466
B -0.750227 -2.812706 0.227929
B 1.312208 -3.356741 0.223375
B 0.159247 -1.562798 0.218823
B -0.202065 -3.663660 0.214370
B 1.482957 -2.359251 0.209849
B -0.640067 -2.183020 0.205409
B 0.805705 -3.746290 0.200999
B 0.795778 -1.617680 0.196539
B -0.634055 -3.193486 0.192200
B 1.483689 -2.997595 0.187809
B -0.209631 -1.711942 0.183446
B 0.170477 -3.802685 0.179169
B 1.302136 -2.005182 0.174808
B -0.745647 -2.566105 0.170556
B 1.142143 -3.535226 0.166299
B 0.405183 -1.546219 0.162007
B -0.394365 -3.509717 0.157841
B 1.520525 -2.602637 0.153590
B -0.503318 -1.978329 0.149402
B 0.566701 -3.804590 0.145273
B 1.011270 -1.736268 0.141056
B -0.712660 -2.960590 0.136973
B 1.384157 -3.222225 0.132841
B 0.015471 -1.613684 0.128706
B -0.061641 -3.722963 0.124686
B 1.419231 -2.220795 0.120557
B -0.686271 -2.328191 0.116530
B 0.937659 -3.670272 0.112519
B 0.647089 -1.584896 0.108435
B -0.546375 -3.317853 0.104498
B 1.502801 -2.846667 0.100471
B -0.325427 -1.810523 0.096481
B 0.322373 -3.807960 0.092579
B 1.193529 -1.898896 0.088559
B -0.737066 -2.717733 0.084674
B 1.238023 -3.417528 0.080757
B 0.255067 -1.568522 0.076797
B -0.268547 -3.594398 0.072981
B 1.484732 -2.455302 0.069041
B -0.576150 -2.111221 0.065183
B 0.710015 -3.755610 0.061373
B 0.872440 -1.675836 0.057452
B -0.650904 -3.098719 0.053688
B 1.431697 -3.078647 0.049844
B -0.116370 -1.687660 0.045999
B 0.085493 -3.757216 0.042276
B 1.333706 -2.096324 0.038412
B -0.706990 -2.477684 0.034671
B 1.053713 -3.573926 0.030926
B 0.496478 -1.577817 0.027097
B -0.440003 -3.424544 0.023432
B 1.496217 -2.696216 0.019642
B -0.421926 -1.926025 0.015904
B 0.471409 -3.787769 0.012247
B 1.069901 -1.813348 0.008448
B -0.703452 -2.864149 0.004807
B 1.311911 -3.286830 0.001105
B 0.112456 -1.615224 -0.002638
B -0.131858 -3.656021 -0.006231
B 1.425383 -2.317683 -0.009979
B -0.625044 -2.252779 -0.013624
B 0.841488 -3.684117 -0.017240
B 0.727207 -1.640016 -0.020980
B -0.567861 -3.222980 -0.024543
B 1.454171 -2.930978 -0.028220
B -0.232439 -1.781531 -0.031886
B 0.234372 -3.766157 -0.035434
B 1.229840 -1.989388 -0.039149
B -0.702356 -2.626565 -0.042718
B 1.150623 -3.460953 -0.046317
B 0.348824 -1.595927 -0.050001
B -0.318855 -3.510637 -0.053513
B 1.464828 -2.551034 -0.057180
B -0.496537 -2.054335 -0.060778
B 0.612902 -3.743367 -0.064308
B 0.935534 -1.750790 -0.067996
B -0.646419 -3.000804 -0.071508
B 1.361907 -3.147559 -0.075111
B -0.018259 -1.684367 -0.078748
B 0.011160 -3.693042 -0.082235
B 1.344762 -2.193994 -0.085902
B -0.648822 -2.398368 -0.089447
B 0.957109 -3.592709 -0.092985
B 0.580275 -1.629620 -0.096652
B -0.466428 -3.329588 -0.100132
B 1.451131 -2.783960 -0.103756
B -0.329189 -1.892119 -0.107354
B 0.380240 -3.749710 -0.110844
B 1.111072 -1.903276 -0.114520
B -0.672659 -2.770085 -0.118031
B 1.225376 -3.335033 -0.121601
B 0.208839 -1.638569 -0.125253
B -0.186835 -3.573409 -0.128728
B 1.409647 -2.415775 -0.132387
B -0.546844 -2.191346 -0.135958
B 0.742284 -3.676124 -0.139482
B 0.794717 -1.713324 -0.143173
B -0.567683 -3.123239 -0.146673
B 1.386233 -3.004160 -0.150297
B -0.132746 -1.773894 -0.153941
B 0.155926 -3.704022 -0.157444
B 1.245255 -2.088415 -0.161149
B -0.646388 -2.543291 -0.164712
B 1.052873 -3.484089 -0.168297
B 0.436433 -1.645393 -0.172009
B -0.349614 -3.414730 -0.175529
B 1.422186 -2.642453 -0.179225
B -0.403018 -2.016119 -0.182875
B 0.518192 -3.707842 -0.186437
B 0.980991 -1.841361 -0.190198
B -0.618233 -2.903316 -0.193778
B 1.274844 -3.200019 -0.197451
B 0.081458 -1.705045 -0.201195
B -0.048048 -3.610000 -0.204768
B 1.331738 -2.295356 -0.208551
B -0.570263 -2.332715 -0.212226
B 0.854681 -3.587466 -0.215882
B 0.652016 -1.703241 -0.219709
B -0.469036 -3.226641 -0.223337
B 1.382905 -2.861404 -0.227123
B -0.226273 -1.881651 -0.230914
B 0.297480 -3.687297 -0.234578
B 1.129374 -2.005579 -0.238465
B -0.616415 -2.682412 -0.242192
B 1.124268 -3.361125 -0.245975
B 0.300977 -1.688322 -0.249882
B -0.220641 -3.474037 -0.253597
B 1.366705 -2.511895 -0.257520
B -0.449719 -2.149957 -0.261378
B 0.642664 -3.640288 -0.265176
B 0.843515 -1.807675 -0.269183
B -0.539189 -3.020586 -0.272997
B 1.295193 -3.060172 -0.276943
B -0.027548 -1.794859 -0.280948
B 0.092908 -3.616790 -0.284796
B 1.231993 -2.195629 -0.288881
B -0.563411 -2.473504 -0.292839
B 0.944173 -3.478693 -0.296814
B 0.512704 -1.723675 -0.300962
B -0.352200 -3.305043 -0.304910
B 1.349056 -2.724898 -0.309054
B -0.292833 -2.005482 -0.313187
B 0.429884 -3.640292 -0.317220
B 0.999723 -1.951518 -0.321494
B -0.556636 -2.809462 -0.325596
B 1.165253 -3.226882 -0.329797
B 0.180515 -1.760341 -0.334115
B -0.083054 -3.501477 -0.338254
B 1.283106 -2.399230 -0.342635
B -0.463278 -2.289587 -0.346937
B 0.746373 -3.545849 -0.351215
B 0.703214 -1.808197 -0.355713
B -0.434738 -3.114262 -0.360019
B 1.280496 -2.920608 -0.364499
B -0.110194 -1.908355 -0.369030
B 0.230338 -3.587927 -0.373429
B 1.110545 -2.124943 -0.378094
B -0.520529 -2.607410 -0.382625
B 1.002046 -3.350455 -0.387218
B 0.383737 -1.780270 -0.391988
B -0.218390 -3.349349 -0.396572
B 1.279189 -2.602287 -0.401396
B -0.322941 -2.143551 -0.406200
B 0.544758 -3.557689 -0.410945
B 0.858817 -1.936124 -0.415954
B -0.461950 -2.915267 -0.420795
B 1.165525 -3.084622 -0.425786
B 0.085075 -1.866291 -0.430897
B 0.059055 -3.486322 -0.435859
B 1.166860 -2.315414 -0.441105
B -0.432531 -2.429994 -0.446272
B 0.817365 -3.420371 -0.451469
B 0.566135 -1.854541 -0.456904
B -0.301182 -3.171309 -0.462168
B 1.218688 -2.788526 -0.467664
B -0.152256 -2.048690 -0.473214
B 0.355753 -3.510895 -0.478685
B 0.964885 -2.098818 -0.484460
B -0.428648 -2.724482 -0.490116
B 1.011365 -3.201026 -0.495902
B 0.276717 -1.886438 -0.501884
B -0.066817 -3.341081 -0.507725
B 1.159466 -2.507048 -0.513867
B -0.296412 -2.295524 -0.520006
B 0.626494 -3.425261 -0.526159
B 0.708342 -1.981454 -0.532616
B -0.317793 -2.981785 -0.538947
B 1.100965 -2.937657 -0.545509
B 0.035493 -2.021009 -0.552219
B 0.200420 -3.402187 -0.558858
B 1.002961 -2.284494 -0.565845
B -0.328580 -2.563551 -0.572798
B 0.827893 -3.248817 -0.579881
B 0.442765 -1.978393 -0.587251
B -0.123637 -3.159681 -0.594532
B 1.074990 -2.677884 -0.602141
B -0.116669 -2.230350 -0.609861
B 0.450966 -3.347474 -0.617620
B 0.781262 -2.160212 -0.625762
B -0.245693 -2.801347 -0.633881
B 0.922215 -3.017833 -0.642260
B 0.221426 -2.088608 -0.650912
B 0.113315 -3.222014 -0.659573
B 0.938526 -2.476939 -0.668649
B -0.144970 -2.469610 -0.677842
B 0.627295 -3.185996 -0.687229
B 0.543796 -2.168127 -0.697028
B -0.060551 -2.948368 -0.706893
B 0.875516 -2.786762 -0.717161
B 0.109235 -2.296006 -0.727728
B 0.332714 -3.133114 -0.738481
B 0.710093 -2.406597 -0.749736
B -0.008647 -2.670913 -0.761213
B 0.645750 -2.936865 -0.773089
B 0.369210 -2.361444 -0.785440
B 0.211970 -2.897288 -0.798090
B 0.601180 -2.653053 -0.811296
B 0.282366 -2.612427 -0.824953
