400
Blob!
B 0.516364 -2.683982 2.464098 1
B 0.220469 -2.531999 2.456142 1
B 0.412654 -2.975202 2.447938 1
B 0.597822 -2.408391 2.439780 1
B -0.002274 -2.753321 2.431226 1
B 0.757162 -2.919202 2.422635 1
B 0.262120 -2.221925 2.413973 1
B 0.149375 -3.142392 2.404848 1
B 0.904783 -2.494406 2.395925 1
B -0.154392 -2.461313 2.386598 1
B 0.649119 -3.243207 2.377063 1
B 0.580386 -2.064953 2.367687 1
B -0.200016 -3.024971 2.357682 1
B 1.078281 -2.835426 2.347859 1
B -0.037120 -2.082339 2.337827 1
B 0.289451 -3.441459 2.327309 1
B 0.990854 -2.174031 2.317144 1
B -0.429289 -2.651180 2.306350 1
B 0.984616 -3.277809 2.295529 1
B 0.345882 -1.817257 2.284806 1
B -0.184248 -3.369865 2.273362 1
B 1.295343 -2.560950 2.262303 1
B -0.385868 -2.147652 2.250820 1
B 0.599377 -3.624430 2.238982 1
B 0.876842 -1.826969 2.227529 1
B -0.574964 -2.992043 2.215283 1
B 1.324429 -3.116145 2.203249 1
B -0.021271 -1.711780 2.191142 1
B 0.023696 -3.697026 2.178362 1
B 1.357980 -2.172428 2.166103 1
B -0.695238 -2.400090 2.153206 1
B 1.004118 -3.641937 2.140185 1
B 0.582167 -1.540382 2.127466 1
B -0.545576 -3.407797 2.113900 1
B 1.583317 -2.781977 2.100770 1
B -0.442754 -1.789249 2.087349 1
B 0.394195 -3.923578 2.073425 1
B 1.231761 -1.750726 2.060060 1
B -0.885310 -2.803383 2.045905 1
B 1.420358 -3.466788 2.031898 1
B 0.150077 -1.390510 2.018023 1
B -0.321874 -3.813009 2.003372 1
B 1.689558 -2.325593 1.989316 1
B -0.831590 -2.060490 1.974756 1
B 0.870030 -3.983149 1.959953 1
B 0.914637 -1.383583 1.945637 1
B -0.895799 -3.293678 1.930486 1
B 1.760480 -3.105996 1.915732 1
B -0.349466 -1.430848 1.900897 1
B 0.079902 -4.121066 1.885470 1
B 1.597161 -1.822380 1.870695 1
B -1.103054 -2.500074 1.855268 1
B 1.371117 -3.837932 1.839883 1
B 0.441014 -1.152864 1.824833 1
B -0.697615 -3.786960 1.809015 1
B 1.946502 -2.602658 1.793772 1
B -0.829413 -1.681410 1.778244 1
B 0.608302 -4.258825 1.762378 1
B 1.295483 -1.361392 1.747118 1
B -1.189673 -3.048678 1.731151 1
B 1.807459 -3.486917 1.715482 1
B -0.122591 -1.119594 1.699951 1
B -0.299521 -4.193282 1.683818 1
B 1.924652 -2.029702 1.668338 1
B -1.200846 -2.123733 1.652421 1
B 1.184763 -4.180512 1.636439 1
B 0.812457 -1.029445 1.620935 1
B -1.054224 -3.622916 1.604766 1
B 2.095435 -2.967242 1.589081 1
B -0.688912 -1.312053 1.573339 1
B 0.252456 -4.433208 1.557217 1
B 1.675941 -1.477203 1.541728 1
B -1.389362 -2.703373 1.525727 1
B 1.717461 -3.876752 1.509904 1
B 0.210269 -0.895090 1.494384 1
B -0.697124 -4.130178 1.478326 1
B 2.173209 -2.348092 1.462841 1
B -1.165536 -1.720083 1.447145 1
B 0.882835 -4.452382 1.431307 1
B 1.220096 -1.036294 1.416000 1
B -1.348655 -3.339316 1.400192 1
B 2.117632 -3.376662 1.384736 1
B -0.425450 -0.996154 1.369405 1
B -0.156650 -4.485026 1.353711 1
B 2.011850 -1.718693 1.338589 1
B -1.471182 -2.296668 1.323166 1
B 1.499770 -4.231174 1.307809 1
B 0.612266 -0.783246 1.292840 1
B -1.068614 -3.937986 1.277447 1
B 2.314907 -2.742900 1.262498 1
B -1.000342 -1.333221 1.247528 1
B 0.497623 -4.623769 1.232381 1
B 1.620238 -1.173121 1.217734 1
B -1.549415 -2.965985 1.202767 1
B 2.010509 -3.787874 1.188017 1
B -0.066331 -0.766751 1.173502 1
B -0.576815 -4.408848 1.158685 1
B 2.268853 -2.061153 1.144327 1
B -1.426907 -1.869767 1.129852 1
B 1.176384 -4.514710 1.115364 1
B 1.043354 -0.794958 1.101266 1
B -1.377556 -3.635905 1.086884 1
B 2.336302 -3.175453 1.072804 1
B -0.721649 -1.000374 1.058830 1
B 0.066230 -4.678756 1.044689 1
B 1.975095 -1.426363 1.030960 1
B -1.638204 -2.538316 1.017075 1
B 1.784761 -4.162763 1.003299 1
B 0.354882 -0.644371 0.989793 1
B -0.969787 -4.212449 0.976077 1
B 2.424376 -2.473011 0.962686 1
B -1.261418 -1.460897 0.949310 1
B 0.776709 -4.702885 0.935888 1
B 1.465547 -0.928177 0.922799 1
B -1.597700 -3.251055 0.909562 1
B 2.236646 -3.608248 0.896504 1
B -0.354219 -0.749389 0.883612 1
B -0.374533 -4.613814 0.870599 1
B 2.255442 -1.773700 0.857883 1
B -1.608773 -2.092271 0.845140 1
B 1.460143 -4.470932 0.832439 1
B 0.803251 -0.637863 0.819981 1
B -1.304163 -3.912938 0.807419 1
B 2.467089 -2.920566 0.795055 1
B -0.989155 -1.102287 0.782783 1
B 0.333006 -4.781977 0.770473 1
B 1.846022 -1.171141 0.758403 1
B -1.713033 -2.814114 0.746303 1
B 2.024987 -4.008104 0.734294 1
B 0.072970 -0.598413 0.722452 1
B -0.791320 -4.435240 0.710561 1
B 2.441182 -2.188015 0.698848 1
B -1.464694 -1.661183 0.687193 1
B 1.061750 -4.690489 0.675557 1
B 1.245659 -0.746313 0.664099 1
B -1.556393 -3.533268 0.652635 1
B 2.395297 -3.371157 0.641271 1
B -0.630865 -0.818965 0.630023 1
B -0.122723 -4.747708 0.618777 1
B 2.158485 -1.505382 0.607668 1
B -1.716759 -2.356268 0.596615 1
B 1.717406 -4.347670 0.585606 1
B 0.529715 -0.556638 0.574722 1
B -1.155893 -4.156653 0.563869 1
B 2.520857 -2.640283 0.553096 1
B -1.217107 -1.274005 0.542418 1
B 0.617233 -4.807800 0.531774 1
B 1.652660 -0.961056 0.521221 1
B -1.710771 -3.099584 0.510745 1
B 2.215164 -3.795070 0.500307 1
B -0.211076 -0.628558 0.489965 1
B -0.560687 -4.603712 0.479684 1
B 2.383572 -1.908128 0.469446 1
B -1.610014 -1.907219 0.459312 1
B 1.334766 -4.605998 0.449215 1
B 0.986596 -0.625356 0.439176 1
B -1.445854 -3.796901 0.429241 1
B 2.490794 -3.101585 0.419315 1
B -0.882789 -0.954418 0.409484 1
B 0.154817 -4.816852 0.399727 1
B 1.999496 -1.267452 0.389972 1
B -1.759008 -2.639265 0.380350 1
B 1.939102 -4.166671 0.370742 1
B 0.243828 -0.541514 0.361179 1
B -0.954540 -4.360107 0.351744 1
B 2.508799 -2.354172 0.342274 1
B -1.400606 -1.493861 0.332922 1
B 0.900923 -4.768667 0.323633 1
B 1.416370 -0.799061 0.314320 1
B -1.644948 -3.378355 0.305172 1
B 2.354189 -3.544550 0.295995 1
B -0.482525 -0.720368 0.286877 1
B -0.298181 -4.718510 0.277890 1
B 2.266701 -1.646422 0.268828 1
B -1.699663 -2.179416 0.259923 1
B 1.584348 -4.465129 0.251043 1
B 0.707130 -0.561511 0.242138 1
B -1.282221 -4.032188 0.233420 1
B 2.528315 -2.817388 0.224620 1
B -1.101836 -1.139329 0.215917 1
B 0.441223 -4.827697 0.207324 1
B 1.795023 -1.066499 0.198630 1
B -1.743127 -2.925442 0.190137 1
B 2.120174 -3.944477 0.181610 1
B -0.039685 -0.583859 0.173082 1
B -0.716539 -4.519722 0.164747 1
B 2.440445 -2.075817 0.156279 1
B -1.537493 -1.745627 0.147961 1
B 1.171667 -4.674893 0.139706 1
B 1.153061 -0.685968 0.131348 1
B -1.526557 -3.639208 0.123225 1
B 2.442525 -3.272037 0.115001 1
B -0.731352 -0.862282 0.106825 1
B -0.018802 -4.781309 0.098820 1
B 2.102582 -1.411726 0.090646 1
B -1.736456 -2.463332 0.082683 1
B 1.802865 -4.280239 0.074711 1
B 0.421083 -0.550908 0.066665 1
B -1.078110 -4.232685 0.058866 1
B 2.512700 -2.531700 0.050901 1
B -1.282726 -1.360915 0.043053 1
B 0.724101 -4.785979 0.035324 1
B 1.557921 -0.906662 0.027416 1
B -1.675677 -3.203181 0.019770 1
B 2.257593 -3.693926 0.012033 1
B -0.310015 -0.676368 0.004277 1
B -0.454635 -4.633554 -0.003246 1
B 2.323755 -1.815185 -0.010987 1
B -1.626872 -2.016719 -0.018534 1
B 1.420367 -4.535015 -0.026041 1
B 0.875087 -0.621672 -0.033702 1
B -1.364649 -3.873932 -0.041074 1
B 2.481235 -2.989581 -0.048619 1
B -0.950241 -1.044813 -0.056103 1
B 0.265762 -4.794089 -0.063404 1
B 1.901056 -1.210455 -0.070946 1
B -1.723247 -2.747691 -0.078224 1
B 1.984810 -4.061449 -0.085557 1
B 0.139269 -0.589875 -0.092989 1
B -0.843856 -4.393797 -0.100132 1
B 2.448382 -2.254821 -0.107518 1
B -1.421768 -1.608688 -0.114753 1
B 0.993709 -4.696844 -0.121884 1
B 1.298757 -0.790746 -0.129244 1
B -1.562469 -3.463333 -0.136292 1
B 2.349430 -3.425596 -0.143493 1
B -0.558635 -0.812620 -0.150710 1
B -0.179359 -4.700540 -0.157675 1
B 2.165694 -1.580150 -0.164927 1
B -1.668523 -2.296705 -0.171940 1
B 1.639834 -4.356487 -0.178950 1
B 0.592721 -0.605575 -0.186141 1
B -1.167115 -4.076044 -0.193002 1
B 2.471705 -2.707237 -0.200106 1
B -1.133429 -1.259685 -0.207125 1
B 0.545730 -4.759001 -0.213965 1
B 1.670719 -1.047637 -0.221100 1
B -1.662922 -3.023025 -0.227923 1
B 2.125900 -3.817614 -0.234856 1
B -0.129205 -0.674827 -0.241890 1
B -0.588524 -4.511997 -0.248613 1
B 2.339606 -1.995454 -0.255646 1
B -1.516191 -1.873424 -0.262488 1
B 1.241793 -4.565157 -0.269254 1
B 1.026858 -0.720768 -0.276283 1
B -1.408957 -3.698130 -0.282957 1
B 2.394419 -3.148853 -0.289851 1
B -0.778291 -0.986619 -0.296740 1
B 0.099937 -4.720160 -0.303378 1
B 1.972757 -1.377418 -0.310358 1
B -1.662669 -2.576293 -0.317052 1
B 1.823941 -4.146255 -0.323792 1
B 0.315148 -0.636735 -0.330723 1
B -0.941310 -4.240023 -0.337297 1
B 2.415579 -2.434027 -0.344181 1
B -1.276019 -1.499176 -0.350942 1
B 0.812290 -4.678377 -0.357549 1
B 1.419610 -0.927533 -0.364487 1
B -1.558485 -3.280779 -0.371071 1
B 2.222534 -3.557039 -0.377827 1
B -0.376073 -0.802115 -0.384671 1
B -0.320636 -4.584356 -0.391197 1
B 2.190632 -1.761524 -0.398092 1
B -1.563752 -2.146427 -0.404751 1
B 1.460811 -4.395765 -0.411379 1
B 0.751042 -0.698288 -0.418285 1
B -1.220546 -3.900448 -0.424806 1
B 2.391686 -2.872589 -0.431612 1
B -0.962311 -1.192431 -0.438383 1
B 0.374335 -4.692231 -0.444919 1
B 1.751364 -1.213182 -0.451841 1
B -1.609815 -2.846583 -0.458433 1
B 1.967010 -3.911188 -0.465131 1
B 0.051204 -0.713963 -0.472013 1
B -0.694522 -4.360736 -0.478526 1
B 2.314715 -2.178677 -0.485411 1
B -1.373445 -1.755619 -0.492132 1
B 1.056877 -4.554735 -0.498736 1
B 1.155734 -0.854120 -0.505696 1
B -1.413104 -3.512587 -0.512268 1
B 2.271338 -3.288022 -0.519078 1
B -0.593212 -0.967936 -0.525951 1
B -0.048745 -4.608133 -0.532517 1
B 2.005874 -1.560879 -0.539502 1
B -1.562349 -2.418928 -0.546207 1
B 1.643238 -4.193673 -0.552937 1
B 0.480258 -0.724757 -0.559948 1
B -1.002816 -4.063123 -0.566556 1
B 2.340438 -2.605882 -0.573516 1
B -1.103920 -1.423923 -0.580403 1
B 0.634670 -4.616633 -0.587088 1
B 1.508173 -1.093794 -0.594193 1
B -1.510519 -3.098360 -0.600929 1
B 2.063146 -3.658442 -0.607839 1
B -0.189883 -0.836025 -0.614917 1
B -0.434376 -4.432780 -0.621628 1
B 2.171023 -1.950385 -0.628772 1
B -1.420821 -2.020940 -0.635707 1
B 1.270365 -4.390662 -0.642580 1
B 0.887584 -0.831748 -0.649823 1
B -1.230048 -3.709434 -0.656652 1
B 2.268531 -3.019441 -0.663792 1
B -0.771748 -1.168348 -0.670965 1
B 0.217914 -4.580138 -0.677855 1
B 1.789945 -1.402212 -0.685213 1
B -1.509408 -2.681360 -0.692248 1
B 1.780598 -3.964156 -0.699378 1
B 0.224377 -0.802115 -0.706783 1
B -0.761702 -4.177936 -0.713781 1
B 2.239387 -2.358879 -0.721202 1
B -1.195187 -1.674503 -0.728509 1
B 0.870555 -4.492753 -0.735663 1
B 1.250426 -1.026869 -0.743266 1
B -1.364869 -3.321020 -0.750472 1
B 2.105088 -3.395897 -0.757929 1
B -0.397313 -1.002116 -0.765533 1
B -0.169391 -4.449286 -0.772791 1
B 1.986043 -1.760118 -0.780540 1
B -1.411702 -2.285981 -0.788043 1
B 1.441652 -4.188457 -0.795551 1
B 0.624955 -0.866409 -0.803440 1
B -1.012397 -3.860109 -0.810906 1
B 2.208609 -2.761724 -0.818763 1
B -0.900378 -1.399457 -0.826621 1
B 0.468285 -4.495396 -0.834243 1
B 1.547572 -1.296894 -0.842377 1
B -1.400527 -2.922027 -0.850160 1
B 1.861487 -3.712806 -0.858122 1
B -0.004258 -0.934161 -0.866351 1
B -0.503697 -4.233476 -0.874191 1
B 2.085388 -2.144572 -0.882528 1
B -1.224716 -1.936734 -0.890719 1
B 1.068341 -4.318148 -0.898829 1
B 0.986549 -1.023762 -0.907414 1
B -1.171179 -3.500244 -0.915594 1
B 2.081558 -3.133017 -0.924118 1
B -0.556076 -1.213101 -0.932770 1
B 0.089878 -4.399090 -0.941123 1
B 1.759796 -1.623594 -0.950033 1
B -1.335074 -2.539025 -0.958672 1
B 1.554298 -3.949107 -0.967411 1
B 0.380802 -0.968926 -0.976542 1
B -0.762199 -3.947428 -0.985270 1
B 2.080992 -2.529144 -0.994484 1
B -0.961146 -1.658056 -1.003678 1
B 0.686682 -4.343640 -1.012717 1
B 1.283241 -1.263682 -1.022318 1
B -1.225817 -3.123725 -1.031568 1
B 1.866328 -3.445521 -1.041106 1
B -0.186796 -1.130319 -1.050915 1
B -0.236268 -4.209327 -1.060391 1
B 1.869574 -1.983593 -1.070455 1
B -1.171219 -2.201396 -1.080365 1
B 1.205472 -4.084640 -1.090305 1
B 0.727719 -1.106657 -1.100761 1
B -0.922106 -3.611381 -1.110845 1
B 1.969467 -2.883172 -1.121395 1
B -0.639224 -1.475323 -1.132080 1
B 0.327591 -4.258198 -1.142565 1
B 1.487149 -1.570272 -1.153692 1
B -1.166033 -2.761440 -1.164572 1
B 1.576110 -3.668941 -1.175690 1
B 0.176929 -1.165104 -1.187240 1
B -0.477545 -3.936200 -1.198471 1
B 1.859014 -2.347102 -1.210317 1
B -0.915553 -1.943928 -1.222173 1
B 0.843617 -4.097410 -1.234021 1
B 0.999730 -1.344717 -1.246516 1
B -0.957113 -3.252281 -1.258735 1
B 1.748982 -3.168167 -1.271411 1
B -0.283680 -1.419335 -1.284414 1
B 0.030987 -4.054939 -1.297235 1
B 1.562816 -1.921692 -1.310782 1
B -0.979258 -2.454378 -1.324259 1
B 1.229058 -3.762981 -1.337968 1
B 0.493529 -1.336423 -1.352294 1
B -0.588635 -3.593243 -1.366410 1
B 1.701927 -2.672612 -1.381190 1
B -0.575865 -1.817092 -1.396214 1
B 0.509375 -3.953023 -1.411279 1
B 1.141136 -1.682438 -1.427147 1
B -0.823476 -2.908871 -1.442955 1
B 1.411339 -3.323196 -1.459271 1
B 0.070035 -1.544528 -1.476172 1
B -0.137030 -3.714594 -1.493052 1
B 1.443480 -2.287679 -1.510788 1
B -0.632295 -2.273554 -1.528767 1
B 0.847627 -3.646499 -1.547106 1
B 0.687645 -1.695210 -1.566311 1
B -0.471353 -3.191403 -1.585626 1
B 1.324325 -2.881474 -1.605754 1
B -0.146111 -1.939647 -1.626508 1
B 0.282821 -3.546641 -1.647603 1
B 1.007604 -2.151495 -1.669741 1
B -0.373202 -2.659201 -1.692320 1
B 0.884424 -3.170391 -1.715691 1
B 0.352809 -2.064039 -1.740050 1
B 0.050308 -3.094675 -1.764994 1
B 0.799266 -2.624760 -1.791072 1
B 0.185543 -2.546515 -1.818070 1
