88
Blob!
B 0.962448 -1.862536 -0.766248
B -0.373401 -5.525418 -1.223785
B -2.086066 -0.124010 -0.693947
B 0.412496 -0.125253 2.150456
B 3.178516 1.087531 -1.008894
B -1.685665 1.582412 -1.668540
B -1.543027 -2.037986 0.556784
B 1.342755 -0.795273 -1.507118
B 2.019324 -0.764052 -0.389347
B 1.590718 2.147420 0.079896
B -2.029844 -0.810526 0.175714
B 0.334894 1.812206 1.977882
B 1.326587 -2.012825 0.341577
B -0.155578 1.369993 -3.012040
B -0.747995 1.369295 -2.550990
B -1.016733 -0.844110 2.037782
B 3.703870 1.450621 -0.481978
B 1.415166 -0.876405 -1.394494
B -3.468142 0.941935 -0.222538
B 2.726513 1.190726 2.463716
B 1.337213 -1.652097 -0.329241
B -0.756361 2.031576 -0.162893
B -1.163549 -1.843595 -0.467297
B 0.607610 1.413029 -1.773917
B 2.066624 -1.419304 0.895384
B 1.801390 -0.381273 -1.192336
B -0.917832 1.951395 -0.202035
B -2.096401 -0.492394 -0.434326
B -0.400621 0.708599 2.002720
B -0.546458 -1.154521 1.966598
B 1.568661 3.072823 1.457006
B 2.097782 -2.325104 2.028863
B 1.536578 2.355531 0.538875
B 0.218441 2.231361 2.139674
B -0.714670 -0.152179 2.011536
B -0.060151 -0.754010 2.030355
B -1.541820 -1.203381 -1.053684
B -0.584023 1.578049 -1.401386
B -0.255874 0.000078 2.247993
B -2.280060 -1.597235 1.782417
B -1.932119 0.238749 -1.611460
B -0.249618 1.680351 -1.408901
B -1.298028 -2.366323 0.388819
B 0.536512 1.890557 2.009601
B 3.209209 2.139438 -0.570019
B 2.267723 0.534156 -1.369320
B 1.278771 -3.735138 0.682716
B 0.794821 -1.522936 -1.858958
B -1.271894 -2.392430 2.420592
B -0.497765 -2.374873 -1.716101
B -1.223713 -0.728547 -1.867107
B -2.178957 -0.887664 0.433388
B -1.992261 -0.898454 -0.223173
B 2.099491 0.032422 -0.951092
B 0.131506 0.073260 2.275502
B -1.820610 -1.395658 0.711500
B 0.515486 2.070938 0.094011
B 2.344087 2.571300 -0.147427
B -1.953198 1.556613 -1.914970
B -1.167046 -1.151902 -1.374173
B 1.274936 -1.794428 -0.440562
B 2.734837 0.610040 -0.196979
B 1.563528 -1.991959 0.740209
B 0.739047 1.662976 -1.331693
B 1.916718 -1.173394 -0.390474
B 1.983059 -1.393028 0.831016
B -0.359781 -0.182023 2.220334
B -0.740425 -1.489530 -1.955130
B -1.039082 1.848927 -0.796279
B 3.780726 0.381881 0.873336
B -1.540024 -0.462229 1.932404
B -1.401060 2.234859 0.255073
B 1.838005 -0.032210 -1.375042
B -2.069800 -0.677470 0.242458
B -1.951271 -1.003017 -0.118243
B -2.180256 -1.589765 1.535792
B 1.640009 0.829132 -3.840380
B 0.883222 1.307522 -2.256939
B -1.953558 -0.962687 -0.302495
B 2.459750 1.845028 -0.872417
B -2.586912 -0.191231 0.715018
B -2.777568 0.869005 -0.760173
B 0.161342 0.092995 2.274263
B -1.577799 -0.178278 -1.712230
B 2.376081 -0.328693 0.109709
B 0.661829 -3.169842 2.488051
B -2.109817 -0.471412 -0.384788
B 2.285736 1.589976 -2.412378
