28
Blob!
B -1.822623 -1.423035 0.790175
B 1.863693 -1.413659 0.481700
B -0.394358 2.202993 0.417084
B 0.870321 2.114524 0.189158
B -1.974438 -0.944920 0.137846
B 2.107198 -0.652382 0.093901
B -1.205579 2.064269 0.052723
B 1.430326 -1.676374 -0.125782
B 0.087237 2.183535 -0.169533
B -1.525648 -1.561546 -0.213167
B 2.281799 0.111169 -0.269235
B 1.393713 2.008179 -0.441662
B -2.075440 -0.484865 -0.428753
B 1.940874 -1.100403 -0.493662
B -0.643595 2.001401 -0.513320
B -0.941179 -2.085945 -0.607964
B 1.009352 -1.888487 -0.710737
B 0.512062 1.947783 -0.718697
B -1.820999 -1.193960 -0.830980
B 2.042800 -0.344592 -0.836054
B -1.942398 -0.024563 -0.995438
B 1.434833 -1.287044 -1.033811
B -0.175746 1.870505 -1.071307
B -1.103279 -1.484283 -1.108105
B 0.845744 1.648359 -1.366196
B -1.610446 -0.614389 -1.340521
B 1.568972 -0.631707 -1.373654
B -0.732061 1.535430 -1.471039
