100
Blob!
B 0.041752 -0.005346 0.246138
B -0.053904 0.051072 0.340271
B 0.019006 -0.133797 0.399042
B 0.112451 0.131308 0.442197
B -0.202770 -0.042588 0.475602
B 0.221999 -0.141624 0.502048
B -0.068357 0.277557 0.523145
B -0.144726 -0.298882 0.539878
B 0.352927 0.120762 0.552991
B -0.365036 0.148511 0.562988
B 0.193352 -0.401991 0.570251
B 0.148861 0.444749 0.575127
B -0.428750 -0.258291 0.577830
B 0.531501 -0.120464 0.578592
B -0.318524 0.458669 0.577590
B -0.069015 -0.597560 0.574950
B 0.486565 0.398277 0.570835
B -0.646164 0.021691 0.565335
B 0.490932 -0.486173 0.558554
B -0.025019 0.702012 0.550599
B -0.462295 -0.568581 0.541524
B 0.759151 0.095797 0.531424
B -0.634189 0.441263 0.520362
B 0.184374 -0.790534 0.508387
B 0.418786 0.712097 0.495577
B -0.800157 -0.263080 0.481966
B 0.795916 -0.369478 0.467612
B -0.335011 0.813532 0.452567
B -0.298989 -0.858084 0.436858
B 0.825561 0.424535 0.420544
B -0.902009 0.234451 0.403655
B 0.525182 -0.810081 0.386226
B 0.172309 0.952554 0.368303
B -0.771994 -0.609197 0.349907
B 1.003938 -0.087843 0.331079
B -0.679698 0.737710 0.311851
B 0.012723 -1.029288 0.292245
B 0.703014 0.761176 0.272303
B -1.032762 -0.101777 0.252043
B 0.847399 -0.642597 0.231497
B -0.182483 1.040020 0.210696
B -0.562172 -0.910961 0.189658
B 1.046112 0.279277 0.168416
B -0.955422 0.488914 0.146994
B 0.385768 -1.025022 0.125415
B 0.419303 1.005798 0.103707
B -0.981781 -0.474286 0.081893
B 1.056464 -0.328649 0.059997
B -0.548041 0.942922 0.038045
B -0.223196 -1.080700 0.016059
B 0.904341 0.631623 -0.005936
B -1.082814 0.130563 -0.027916
B 0.718907 -0.840842 -0.049856
B 0.047582 1.088611 -0.071735
B -0.758240 -0.782595 -0.093525
B 1.093291 0.050199 -0.115204
B -0.826358 0.683795 -0.136748
B 0.156407 -1.070986 -0.158128
B 0.614073 0.875336 -0.179325
B -1.026868 -0.243400 -0.200308
B 0.924033 -0.524458 -0.221053
B -0.314430 0.987607 -0.241537
B -0.421265 -0.945858 -0.261724
B 0.949241 0.394140 -0.281596
B -0.945248 0.332170 -0.301120
B 0.476463 -0.886712 -0.320262
B 0.254054 0.948153 -0.339005
B -0.805967 -0.534164 -0.357301
B 0.949919 -0.162507 -0.375128
B -0.570994 0.734396 -0.392454
B -0.063937 -0.924829 -0.409231
B 0.668691 0.612181 -0.425438
B -0.878204 -0.013990 -0.441025
B 0.652330 -0.584363 -0.455950
B -0.074511 0.836872 -0.470184
B -0.487846 -0.664951 -0.483660
B 0.797039 0.142269 -0.496345
B -0.654595 0.406932 -0.508183
B 0.211201 -0.733812 -0.519106
B 0.338614 0.647340 -0.529073
B -0.653299 -0.254083 -0.537997
B 0.638673 -0.258585 -0.545814
B -0.274686 0.583064 -0.552452
B -0.173354 -0.603009 -0.557798
B 0.519975 0.298277 -0.561777
B -0.545807 0.110691 -0.564262
B 0.319496 -0.439710 -0.565117
B 0.067454 0.494046 -0.564217
B -0.348867 -0.311878 -0.561356
B 0.444075 -0.019093 -0.556348
B -0.279984 0.275403 -0.548941
B 0.028221 -0.371106 -0.538801
B 0.216467 0.249879 -0.525568
B -0.281290 -0.047111 -0.508695
B 0.216931 -0.147872 -0.487483
B -0.041107 0.202103 -0.460930
B -0.076169 -0.155127 -0.427410
B 0.129867 0.034968 -0.384181
B -0.068355 0.028882 -0.325328
B 0.021220 -0.036702 -0.231147
