364
from xrd
H          4.99009        9.63544        9.45819
C         14.99520       12.23120       15.59650
C          6.23447       17.39800        9.68206
C          5.94641       16.20920        9.02363
Zn        17.00540       17.00540       17.00540
Zn         5.85656        5.85656       17.00540
Zn         5.85656       17.00540        5.85656
Zn        17.00540        5.85656        5.85656
C         15.12320        9.61347       14.23620
C          7.86681       12.23120        7.26554
H          8.66612        9.04633       16.59910
C         16.20920       13.83840       16.91560
C          7.73879        9.61347        8.62583
H         11.22680        9.32886        4.88129
C          7.86681       10.63080       15.59650
H          4.99009       13.22660       13.40380
C         17.38660       12.37980        9.55860
C          5.47545       12.37980       13.30340
H         16.59910        8.66612        9.04633
H         12.37500       17.08740       10.57740
N         17.65630       16.32800       15.05690
N          5.20568        6.53396       15.05690
N          5.20568       16.32800        7.80509
N         17.65630        6.53396        7.80509
N         15.05690       17.65630       16.32800
N         15.05690        5.20568        6.53396
N          7.80509        5.20568       16.32800
N          7.80509       17.65630        6.53396
N         16.32800       15.05690       17.65630
N          6.53396       15.05690        5.20568
N         16.32800        7.80509        5.20568
N          6.53396        7.80509       17.65630
C         11.57050        7.55360        6.67799
H         16.97940        4.64314        9.35922
C         11.29150        7.55360       16.18400
H          4.64314       13.50280        5.88260
H          5.77460       12.28460       12.37500
H          9.35922        5.88260       18.21890
H         12.28460       12.37500        5.77460
H         17.87190       13.22660        9.45819
H         10.48700       17.08740       12.28460
H         12.28460       10.48700       17.08740
H         13.22660        9.45819       17.87190
H         13.81570        6.26291        8.66612
N         14.23390       16.17490       10.48910
N          8.62812        6.68713       10.48910
N          8.62812       16.17490       12.37290
N         14.23390        6.68713       12.37290
N         10.48910       14.23390       16.17490
N         10.48910        8.62812        6.68713
N         12.37290        8.62812       16.17490
N         12.37290       14.23390        6.68713
N         16.17490       10.48910       14.23390
N          6.68713       10.48910        8.62812
N         16.17490       12.37290        8.62812
N          6.68713       12.37290       14.23390
H         13.40380        4.99009       13.22660
H         18.21890       13.50280       16.97940
H         11.90700       15.24550       14.17540
H          4.64314        9.35922       16.97940
C          6.65284       13.83840        5.94641
H         13.50280       16.97940       18.21890
H         10.57740       12.37500       17.08740
H         13.22660       13.40380        4.99009
H         10.57740       10.48700        5.77460
H         10.48700        5.77460       10.57740
H          9.63544        9.45819        4.99009
H          7.58545       14.26730        3.79347
N         15.18950       14.17440        9.56317
N          7.67249        8.68756        9.56317
N          7.67249       14.17440       13.29880
N         15.18950        8.68756       13.29880
N          9.56317       15.18950       14.17440
N          9.56317        7.67249        8.68756
N         13.29880        7.67249       14.17440
N         13.29880       15.18950        8.68756
N         14.17440        9.56317       15.18950
N          8.68756        9.56317        7.67249
N         14.17440       13.29880        7.67249
N          8.68756       13.29880       15.18950
H         17.87190        9.63544       13.40380
C         15.59650        7.86681       10.63080
C          9.68206        6.23447       17.39800
C          5.94641        6.65284       13.83840
C          6.67799       11.29150       15.30840
C         16.91560        6.65284        9.02363
C         10.63080       15.59650        7.86681
H          7.23619        4.66364       11.59410
C         12.37980        9.55860       17.38660
C         10.81600        7.03921       17.38660
C          6.46080        7.85310       13.36510
C         12.23120       15.59650       14.99520
N         19.04180       16.50410       17.21280
N          3.82024        6.35792       17.21280
N          3.82024       16.50410        5.64920
N         19.04180        6.35792        5.64920
N         17.21280       19.04180       16.50410
N         17.21280        3.82024        6.35792
N          5.64920        3.82024       16.50410
N          5.64920       19.04180        6.35792
N         16.50410       17.21280       19.04180
N          6.35792       17.21280        3.82024
N         16.50410        5.64920        3.82024
N          6.35792        5.64920       19.04180
C         13.24850        8.62583       15.12320
C          9.02363        5.94641       16.20920
C          9.68206       16.62750        5.46402
C          9.49687       16.40120        7.85310
C         11.29150       15.30840        6.67799
C         13.36510       16.40120       15.00890
H          7.58545        8.59467       19.06850
H         11.26790       15.62580        4.66364
C         12.37980       13.30340        5.47545
C         17.38660       12.04600       15.82280
H          5.77460       10.57740       10.48700
H         13.53310       17.98070       11.22680
C         19.78250       16.59780       18.32390
C          3.07951        6.26419       18.32390
C          3.07951       16.59780        4.53811
C         19.78250        6.26419        4.53811
C         18.32390       19.78250       16.59780
C         18.32390        3.07951        6.26419
C          4.53811        3.07951       16.59780
C          4.53811       19.78250        6.26419
C         16.59780       18.32390       19.78250
C          6.26419       18.32390        3.07951
C         16.59780        4.53811        3.07951
C          6.26419        4.53811       19.78250
C         13.24850       14.23620        7.73879
H          8.66612       13.81570        6.26291
C         13.17990        6.23447        5.46402
C          9.49687        6.46080       15.00890
H         13.40380       17.87190        9.63544
C         13.36510        6.46080        7.85310
H         13.50280        5.88260        4.64314
H         11.26790        7.23619       18.19840
H          5.88260       18.21890        9.35922
C         10.81600       15.82280        5.47545
C         17.38660       10.48220       13.30340
H          6.26291       14.19590        9.04633
H         19.39780       17.03770       19.07330
H          3.46416        5.82432       19.07330
H          3.46416       17.03770        3.78871
H         19.39780        5.82432        3.78871
H         19.07330       19.39780       17.03770
H         19.07330        3.46416        5.82432
H          3.78871        3.46416       17.03770
H          3.78871       19.39780        5.82432
H         17.03770       19.07330       19.39780
H          5.82432       19.07330        3.46416
H         17.03770        3.78871        3.46416
H          5.82432        3.78871       19.39780
C          9.61347        8.62583        7.73879
C         15.30840        6.67799       11.29150
C         17.39800       13.17990       16.62750
C          7.85310       13.36510        6.46080
C          7.73879       13.24850       14.23620
C         16.40120        7.85310        9.49687
H         13.81570       16.59910       14.19590
H         18.19840       11.26790        7.23619
H          4.88129       11.63520       13.53310
C         17.38660       10.81600        7.03921
H         16.97940       18.21890       13.50280
H         18.21890        9.35922        5.88260
C         21.05820       16.10170       18.46110
C          1.80381        6.76029       18.46110
C          1.80381       16.10170        4.40093
C         21.05820        6.76029        4.40093
C         18.46110       21.05820       16.10170
C         18.46110        1.80381        6.76029
C          4.40093        1.80381       16.10170
C          4.40093       21.05820        6.76029
C         16.10170       18.46110       21.05820
C          6.76029       18.46110        1.80381
C         16.10170        4.40093        1.80381
C          6.76029        4.40093       21.05820
C          9.61347       14.23620       15.12320
C          7.55360        6.67799       11.57050
C          5.46402       13.17990        6.23447
C         15.00890       13.36510       16.40120
C         15.12320       13.24850        8.62583
H          9.63544       13.40380       17.87190
C          6.65284        9.02363       16.91560
H         11.59410        7.23619        4.66364
H          9.45819       17.87190       13.22660
C          5.47545       12.04600        7.03921
H         15.24550       14.17540       11.90700
H         15.27650       14.26730       19.06850
H         21.52650       16.19320       19.28340
H          1.33553        6.66885       19.28340
H          1.33553       16.19320        3.57857
H         21.52650        6.66885        3.57857
H         19.28340       21.52650       16.19320
H         19.28340        1.33553        6.66885
H          3.57857        1.33553       16.19320
H          3.57857       21.52650        6.66885
H         16.19320       19.28340       21.52650
H          6.66885       19.28340        1.33553
H         16.19320        3.57857        1.33553
H          6.66885        3.57857       21.52650
C          8.62583       15.12320       13.24850
C         15.30840       16.18400       11.57050
C         17.39800        9.68206        6.23447
C         15.00890        9.49687        6.46080
H         17.08740       10.57740       12.37500
C         16.18400       11.57050       15.30840
H          7.61650       14.17540       10.95500
H         18.19840       11.59410       15.62580
C          9.55860        5.47545       10.48220
C         15.82280        5.47545       10.81600
H         15.27650        8.59467        3.79347
H         14.19590        9.04633        6.26291
C         21.64570       15.47300       17.39570
C          1.21626        7.38900       17.39570
C          1.21626       15.47300        5.46630
C         21.64570        7.38900        5.46630
C         17.39570       21.64570       15.47300
C         17.39570        1.21626        7.38900
C          5.46630        1.21626       15.47300
C          5.46630       21.64570        7.38900
C         15.47300       17.39570       21.64570
C          7.38900       17.39570        1.21626
C         15.47300        5.46630        1.21626
C          7.38900        5.46630       21.64570
C         14.23620        7.73879       13.24850
C          7.55360       16.18400       11.29150
C          5.46402        9.68206       16.62750
C          7.85310        9.49687       16.40120
H          9.32886        4.88129       11.22680
H          6.26291        8.66612       13.81570
C          6.67799       11.57050        7.55360
H          4.66364       11.59410        7.23619
C         13.30340       17.38660       10.48220
C          7.03921       17.38660       10.81600
C          5.47545       10.81600       15.82280
H         16.59910       14.19590       13.81570
H         22.53870       15.15330       17.44420
H          0.32327        7.70872       17.44420
H          0.32327       15.15330        5.41779
H         22.53870        7.70872        5.41779
H         17.44420       22.53870       15.15330
H         17.44420        0.32327        7.70872
H          5.41779        0.32327       15.15330
H          5.41779       22.53870        7.70872
H         15.15330       17.44420       22.53870
H          7.70872       17.44420        0.32327
H         15.15330        5.41779        0.32327
H          7.70872        5.41779       22.53870
H          9.45819        4.99009        9.63544
C          7.26554       14.99520       10.63080
C         16.62750       17.39800       13.17990
H          9.04633        6.26291       14.19590
H         14.19590       13.81570       16.59910
C         13.83840       16.91560       16.20920
H          8.68658       11.90700        7.61650
H         15.62580        4.66364       11.26790
C         10.48220       13.30340       17.38660
C         12.04600        7.03921        5.47545
C         16.40120       15.00890       13.36510
C         15.82280       17.38660       12.04600
C         19.63620       15.89820       16.17260
C          3.22583        6.96377       16.17260
C          3.22583       15.89820        6.68942
C         19.63620        6.96377        6.68942
C         16.17260       19.63620       15.89820
C         16.17260        3.22583        6.96377
C          6.68942        3.22583       15.89820
C          6.68942       19.63620        6.96377
C         15.89820       16.17260       19.63620
C          6.96377       16.17260        3.22583
C         15.89820        6.68942        3.22583
C          6.96377        6.68942       19.63620
C          8.62583        7.73879        9.61347
C          7.26554        7.86681       12.23120
H         10.95500       15.24550        8.68658
H          4.88129       11.22680        9.32886
H          5.88260        4.64314       13.50280
C         11.57050       15.30840       16.18400
H          8.68658       10.95500       15.24550
H          7.23619       18.19840       11.26790
C         10.48220        9.55860        5.47545
C         12.04600       15.82280       17.38660
C          6.46080       15.00890        9.49687
H         15.24550        8.68658       10.95500
C         20.89360       15.32210       16.25490
C          1.96842        7.53989       16.25490
C          1.96842       15.32210        6.60712
C         20.89360        7.53989        6.60712
C         16.25490       20.89360       15.32210
C         16.25490        1.96842        7.53989
C          6.60712        1.96842       15.32210
C          6.60712       20.89360        7.53989
C         15.32210       16.25490       20.89360
C          7.53989       16.25490        1.96842
C         15.32210        6.60712        1.96842
C          7.53989        6.60712       20.89360
C         14.23620       15.12320        9.61347
C         15.59650       14.99520       12.23120
H         11.63520        9.32886       17.98070
C         16.18400       11.29150        7.55360
H         17.08740       12.28460       10.48700
H          9.32886       17.98070       11.63520
H         14.17540       10.95500        7.61650
H         11.59410       15.62580       18.19840
C          9.55860       17.38660       12.37980
C          7.03921        5.47545       12.04600
H          9.04633       16.59910        8.66612
C         16.62750        5.46402        9.68206
H         21.23660       14.82310       15.52390
H          1.62544        8.03890       15.52390
H          1.62544       14.82310        7.33813
H         21.23660        8.03890        7.33813
H         15.52390       21.23660       14.82310
H         15.52390        1.62544        8.03890
H          7.33813        1.62544       14.82310
H          7.33813       21.23660        8.03890
H         14.82310       15.52390       21.23660
H          8.03890       15.52390        1.62544
H         14.82310        7.33813        1.62544
H          8.03890        7.33813       21.23660
H          9.35922       16.97940        4.64314
C         10.63080        7.26554       14.99520
C         13.17990       16.62750       17.39800
C         14.99520       10.63080        7.26554
H         17.98070       11.22680       13.53310
C          9.02363       16.91560        6.65284
H         14.17540       11.90700       15.24550
H         15.62580       18.19840       11.59410
C          5.47545       10.48220        9.55860
C         13.83840        5.94641        6.65284
H         11.22680       13.53310       17.98070
H         13.53310        4.88129       11.63520
C         18.78800       15.77020       15.02950
C          4.07401        7.09179       15.02950
C          4.07401       15.77020        7.83252
C         18.78800        7.09179        7.83252
C         15.02950       18.78800       15.77020
C         15.02950        4.07401        7.09179
C          7.83252        4.07401       15.77020
C          7.83252       18.78800        7.09179
C         15.77020       15.02950       18.78800
C          7.09179       15.02950        4.07401
C         15.77020        7.83252        4.07401
C          7.09179        7.83252       18.78800
H         12.37500        5.77460       12.28460
C         12.23120        7.26554        7.86681
C          6.23447        5.46402       13.17990
H          7.61650        8.68658       11.90700
H         11.63520       13.53310        4.88129
C         16.20920        9.02363        5.94641
H         11.90700        7.61650        8.68658
H          4.66364       11.26790       15.62580
C         13.30340        5.47545       12.37980
H         17.98070       11.63520        9.32886
C         16.91560       16.20920       13.83840
H         10.95500        7.61650       14.17540
H         19.06850       15.27650       14.26730
H          3.79347        7.58545       14.26730
H          3.79347       15.27650        8.59467
H         19.06850        7.58545        8.59467
H         14.26730       19.06850       15.27650
H         14.26730        3.79347        7.58545
H          8.59467        3.79347       15.27650
H          8.59467       19.06850        7.58545
