694

C         22.78400        4.25900        6.81300
H         22.56700        4.41200        5.90000
N         22.97900        5.31500        7.61600
Ni        22.26400       14.95400       14.95400
Fe        22.69100        7.21700        7.21700
N         23.05200        7.32700        9.15800
C         22.88600        2.94600        7.26200
H         22.77100        2.21700        6.66300
N         22.40700       13.85100       13.53200
C         23.15800        2.71600        8.61100
H         23.24800        1.82700        8.93100
C         23.29500        3.74100        9.44800
H         23.47300        3.58900       10.36800
N         22.33200       16.23100       13.79900
C         23.17300        5.04800        8.95100
C         23.28300        6.26300        9.74700
H         23.51800        6.24100       10.66800
C         23.00200        8.54300        9.97700
C         24.02200        9.45700        9.85200
H         24.75700        9.29400        9.27200
C         23.93800       10.61400       10.59600
H         24.65800       11.23400       10.54100
C         22.92400       10.91300       11.38300
C         21.88700        9.94100       11.52700
H         21.15300       10.10300       12.10900
C         21.96400        8.76900       10.81300
H         21.28500        8.11100       10.90900
C         22.77500       12.19600       12.09200
C         22.85600       13.41100       11.43100
H         23.05200       13.53000       10.51000
C         22.59300       14.44000       12.35800
C         22.69700       15.92900       12.47100
C         22.97200       17.09500       11.75100
H         23.14300       17.16400       10.81900
C         22.94200       18.14200       12.68700
H         23.08400       19.06000       12.48200
C         22.67600       17.63100       13.97300
C         22.71800       18.17800       15.25600
C         22.54200       17.40900       16.43400
C         22.95400       19.61800       15.37700
C         21.90000       20.51400       15.23300
C         22.11100       21.87300       15.43400
H         21.39200       22.48600       15.33600
C         23.37600       22.33600       15.77700
C         24.43000       21.44100       15.92100
H         25.29400       21.75700       16.15500
C         24.21800       20.08100       15.72100
C         20.44800       20.05600       14.82800
H         20.26800       20.31900       13.90300
H         19.79500       20.47900       15.42300
H         20.38000       19.08100       14.91100
C         23.66600       23.82500       16.03400
H         22.89800       24.36200       15.75000
H         24.46000       24.09600       15.52600
H         23.82800       23.96600       16.99100
C         25.37400       19.09000       15.82100
H         25.17700       18.30300       15.27100
H         25.48600       18.81400       16.75500
H         26.19700       19.51400       15.50400
C         22.78400       25.64900       23.09500
H         22.56700       25.49600       24.00800
N         22.97900       24.59300       22.29200
N         23.05200       22.58100       20.75000
C         22.88600       26.96200       22.64600
H         22.77100       27.69100       23.24500
N         22.40700       16.05700       16.37600
C         23.15800       27.19200       21.29700
H         23.24800       28.08100       20.97700
C         23.29500       26.16700       20.46000
H         23.47300       26.31900       19.54000
N         22.33200       13.67700       16.10900
C         23.17300       24.86000       20.95700
C         23.28300       23.64500       20.16100
H         23.51800       23.66700       19.24000
C         23.00200       21.36500       19.93100
C         24.02200       20.45100       20.05600
H         24.75700       20.61400       20.63600
C         23.93800       19.29400       19.31200
H         24.65800       18.67400       19.36700
C         22.92400       18.99500       18.52500
C         21.88700       19.96700       18.38100
H         21.15300       19.80500       17.79900
C         21.96400       21.13900       19.09500
H         21.28500       21.79700       18.99900
C         22.77500       17.71200       17.81600
C         22.85600       16.49700       18.47700
H         23.05200       16.37800       19.39800
C         22.59300       15.46800       17.55000
C         22.69700       13.97900       17.43700
C         22.97200       12.81300       18.15700
H         23.14300       12.74400       19.08900
C         22.94200       11.76600       17.22100
H         23.08400       10.84800       17.42600
C         22.67600       12.27700       15.93500
C         22.71800       11.73000       14.65200
C         22.54200       12.49900       13.47400
C         22.95400       10.29000       14.53100
C         21.90000        9.39400       14.67500
C         22.11100        8.03500       14.47400
H         21.39200        7.42200       14.57200
C         23.37600        7.57200       14.13100
C         24.43000        8.46700       13.98700
H         25.29400        8.15100       13.75300
C         24.21800        9.82700       14.18700
C         20.44800        9.85200       15.08000
H         20.26800        9.58900       16.00500
H         19.79500        9.42900       14.48500
H         20.38000       10.82700       14.99700
C         23.66600        6.08300       13.87400
H         22.89800        5.54600       14.15800
H         24.46000        5.81200       14.38200
H         23.82800        5.94200       12.91700
C         25.37400       10.81800       14.08700
H         25.17700       11.60500       14.63700
H         25.48600       11.09400       13.15300
H         26.19700       10.39400       14.40400
Fe        22.69100       22.69100       22.69100
C          6.81300       22.78400        4.25900
H          5.90000       22.56700        4.41200
N          7.61600       22.97900        5.31500
Ni        14.95400       22.26400       14.95400
Fe         7.21700       22.69100        7.21700
N          9.15800       23.05200        7.32700
C          7.26200       22.88600        2.94600
H          6.66300       22.77100        2.21700
N         13.53200       22.40700       13.85100
C          8.61100       23.15800        2.71600
H          8.93100       23.24800        1.82700
C          9.44800       23.29500        3.74100
H         10.36800       23.47300        3.58900
N         13.79900       22.33200       16.23100
C          8.95100       23.17300        5.04800
C          9.74700       23.28300        6.26300
H         10.66800       23.51800        6.24100
C          9.97700       23.00200        8.54300
C          9.85200       24.02200        9.45700
H          9.27200       24.75700        9.29400
C         10.59600       23.93800       10.61400
H         10.54100       24.65800       11.23400
C         11.38300       22.92400       10.91300
C         11.52700       21.88700        9.94100
H         12.10900       21.15300       10.10300
C         10.81300       21.96400        8.76900
H         10.90900       21.28500        8.11100
C         12.09200       22.77500       12.19600
C         11.43100       22.85600       13.41100
H         10.51000       23.05200       13.53000
C         12.35800       22.59300       14.44000
C         12.47100       22.69700       15.92900
C         11.75100       22.97200       17.09500
H         10.81900       23.14300       17.16400
C         12.68700       22.94200       18.14200
H         12.48200       23.08400       19.06000
C         13.97300       22.67600       17.63100
C         15.25600       22.71800       18.17800
C         16.43400       22.54200       17.40900
C         15.37700       22.95400       19.61800
C         15.23300       21.90000       20.51400
C         15.43400       22.11100       21.87300
H         15.33600       21.39200       22.48600
C         15.77700       23.37600       22.33600
C         15.92100       24.43000       21.44100
H         16.15500       25.29400       21.75700
C         15.72100       24.21800       20.08100
C         14.82800       20.44800       20.05600
H         13.90300       20.26800       20.31900
H         15.42300       19.79500       20.47900
H         14.91100       20.38000       19.08100
C         16.03400       23.66600       23.82500
H         15.75000       22.89800       24.36200
H         15.52600       24.46000       24.09600
H         16.99100       23.82800       23.96600
C         15.82100       25.37400       19.09000
H         15.27100       25.17700       18.30300
H         16.75500       25.48600       18.81400
H         15.50400       26.19700       19.51400
C         23.09500       22.78400       25.64900
H         24.00800       22.56700       25.49600
N         22.29200       22.97900       24.59300
N         20.75000       23.05200       22.58100
C         22.64600       22.88600       26.96200
H         23.24500       22.77100       27.69100
N         16.37600       22.40700       16.05700
C         21.29700       23.15800       27.19200
H         20.97700       23.24800       28.08100
C         20.46000       23.29500       26.16700
H         19.54000       23.47300       26.31900
N         16.10900       22.33200       13.67700
C         20.95700       23.17300       24.86000
C         20.16100       23.28300       23.64500
H         19.24000       23.51800       23.66700
C         19.93100       23.00200       21.36500
C         20.05600       24.02200       20.45100
H         20.63600       24.75700       20.61400
C         19.31200       23.93800       19.29400
H         19.36700       24.65800       18.67400
C         18.52500       22.92400       18.99500
C         18.38100       21.88700       19.96700
H         17.79900       21.15300       19.80500
C         19.09500       21.96400       21.13900
H         18.99900       21.28500       21.79700
C         17.81600       22.77500       17.71200
C         18.47700       22.85600       16.49700
H         19.39800       23.05200       16.37800
C         17.55000       22.59300       15.46800
C         17.43700       22.69700       13.97900
C         18.15700       22.97200       12.81300
H         19.08900       23.14300       12.74400
C         17.22100       22.94200       11.76600
H         17.42600       23.08400       10.84800
C         15.93500       22.67600       12.27700
C         14.65200       22.71800       11.73000
C         13.47400       22.54200       12.49900
C         14.53100       22.95400       10.29000
C         14.67500       21.90000        9.39400
C         14.47400       22.11100        8.03500
H         14.57200       21.39200        7.42200
C         14.13100       23.37600        7.57200
C         13.98700       24.43000        8.46700
H         13.75300       25.29400        8.15100
C         14.18700       24.21800        9.82700
C         15.08000       20.44800        9.85200
H         16.00500       20.26800        9.58900
H         14.48500       19.79500        9.42900
H         14.99700       20.38000       10.82700
C         13.87400       23.66600        6.08300
H         14.15800       22.89800        5.54600
H         14.38200       24.46000        5.81200
H         12.91700       23.82800        5.94200
C         14.08700       25.37400       10.81800
H         14.63700       25.17700       11.60500
H         13.15300       25.48600       11.09400
H         14.40400       26.19700       10.39400
C          6.81300        7.12400       25.64900
H          5.90000        7.34100       25.49600
N          7.61600        6.92900       24.59300
Ni        14.95400        7.64400       14.95400
Fe         7.21700        7.21700       22.69100
N          9.15800        6.85600       22.58100
C          7.26200        7.02200       26.96200
H          6.66300        7.13700       27.69100
N         13.53200        7.50100       16.05700
C          8.61100        6.75000       27.19200
H          8.93100        6.66000       28.08100
C          9.44800        6.61300       26.16700
H         10.36800        6.43500       26.31900
N         13.79900        7.57600       13.67700
C          8.95100        6.73500       24.86000
C          9.74700        6.62500       23.64500
H         10.66800        6.39000       23.66700
C          9.97700        6.90600       21.36500
C          9.85200        5.88600       20.45100
H          9.27200        5.15100       20.61400
C         10.59600        5.97000       19.29400
H         10.54100        5.25000       18.67400
C         11.38300        6.98400       18.99500
C         11.52700        8.02100       19.96700
H         12.10900        8.75500       19.80500
C         10.81300        7.94400       21.13900
H         10.90900        8.62300       21.79700
C         12.09200        7.13300       17.71200
C         11.43100        7.05200       16.49700
H         10.51000        6.85600       16.37800
C         12.35800        7.31500       15.46800
C         12.47100        7.21100       13.97900
C         11.75100        6.93600       12.81300
H         10.81900        6.76500       12.74400
C         12.68700        6.96600       11.76600
H         12.48200        6.82400       10.84800
C         13.97300        7.23200       12.27700
C         15.25600        7.19000       11.73000
C         16.43400        7.36600       12.49900
C         15.37700        6.95400       10.29000
C         15.23300        8.00800        9.39400
C         15.43400        7.79700        8.03500
H         15.33600        8.51600        7.42200
C         15.77700        6.53200        7.57200
C         15.92100        5.47800        8.46700
H         16.15500        4.61400        8.15100
C         15.72100        5.69000        9.82700
C         14.82800        9.46000        9.85200
H         13.90300        9.64000        9.58900
H         15.42300       10.11300        9.42900
H         14.91100        9.52800       10.82700
C         16.03400        6.24200        6.08300
H         15.75000        7.01000        5.54600
H         15.52600        5.44800        5.81200
H         16.99100        6.08000        5.94200
C         15.82100        4.53400       10.81800
H         15.27100        4.73100       11.60500
H         16.75500        4.42200       11.09400
H         15.50400        3.71100       10.39400
C         23.09500        7.12400        4.25900
H         24.00800        7.34100        4.41200
N         22.29200        6.92900        5.31500
N         20.75000        6.85600        7.32700
C         22.64600        7.02200        2.94600
H         23.24500        7.13700        2.21700
N         16.37600        7.50100       13.85100
C         21.29700        6.75000        2.71600
H         20.97700        6.66000        1.82700
C         20.46000        6.61300        3.74100
H         19.54000        6.43500        3.58900
N         16.10900        7.57600       16.23100
C         20.95700        6.73500        5.04800
C         20.16100        6.62500        6.26300
H         19.24000        6.39000        6.24100
C         19.93100        6.90600        8.54300
C         20.05600        5.88600        9.45700
H         20.63600        5.15100        9.29400
C         19.31200        5.97000       10.61400
H         19.36700        5.25000       11.23400
C         18.52500        6.98400       10.91300
C         18.38100        8.02100        9.94100
H         17.79900        8.75500       10.10300
C         19.09500        7.94400        8.76900
H         18.99900        8.62300        8.11100
C         17.81600        7.13300       12.19600
C         18.47700        7.05200       13.41100
H         19.39800        6.85600       13.53000
C         17.55000        7.31500       14.44000
C         17.43700        7.21100       15.92900
C         18.15700        6.93600       17.09500
H         19.08900        6.76500       17.16400
C         17.22100        6.96600       18.14200
H         17.42600        6.82400       19.06000
C         15.93500        7.23200       17.63100
C         14.65200        7.19000       18.17800
C         13.47400        7.36600       17.40900
C         14.53100        6.95400       19.61800
C         14.67500        8.00800       20.51400
C         14.47400        7.79700       21.87300
H         14.57200        8.51600       22.48600
C         14.13100        6.53200       22.33600
C         13.98700        5.47800       21.44100
H         13.75300        4.61400       21.75700
C         14.18700        5.69000       20.08100
C         15.08000        9.46000       20.05600
H         16.00500        9.64000       20.31900
H         14.48500       10.11300       20.47900
H         14.99700        9.52800       19.08100
C         13.87400        6.24200       23.82500
H         14.15800        7.01000       24.36200
H         14.38200        5.44800       24.09600
H         12.91700        6.08000       23.96600
C         14.08700        4.53400       19.09000
H         14.63700        4.73100       18.30300
H         13.15300        4.42200       18.81400
H         14.40400        3.71100       19.51400
C          4.25900        6.81300       22.78400
H          4.41200        5.90000       22.56700
N          5.31500        7.61600       22.97900
Ni        14.95400       14.95400       22.26400
N          7.32700        9.15800       23.05200
C          2.94600        7.26200       22.88600
H          2.21700        6.66300       22.77100
N         13.85100       13.53200       22.40700
C          2.71600        8.61100       23.15800
H          1.82700        8.93100       23.24800
C          3.74100        9.44800       23.29500
H          3.58900       10.36800       23.47300
N         16.23100       13.79900       22.33200
C          5.04800        8.95100       23.17300
C          6.26300        9.74700       23.28300
H          6.24100       10.66800       23.51800
C          8.54300        9.97700       23.00200
C          9.45700        9.85200       24.02200
H          9.29400        9.27200       24.75700
C         10.61400       10.59600       23.93800
H         11.23400       10.54100       24.65800
C         10.91300       11.38300       22.92400
C          9.94100       11.52700       21.88700
H         10.10300       12.10900       21.15300
C          8.76900       10.81300       21.96400
H          8.11100       10.90900       21.28500
C         12.19600       12.09200       22.77500
C         13.41100       11.43100       22.85600
H         13.53000       10.51000       23.05200
C         14.44000       12.35800       22.59300
C         15.92900       12.47100       22.69700
C         17.09500       11.75100       22.97200
H         17.16400       10.81900       23.14300
C         18.14200       12.68700       22.94200
H         19.06000       12.48200       23.08400
C         17.63100       13.97300       22.67600
C         18.17800       15.25600       22.71800
C         17.40900       16.43400       22.54200
C         19.61800       15.37700       22.95400
C         20.51400       15.23300       21.90000
C         21.87300       15.43400       22.11100
H         22.48600       15.33600       21.39200
C         22.33600       15.77700       23.37600
C         21.44100       15.92100       24.43000
H         21.75700       16.15500       25.29400
C         20.08100       15.72100       24.21800
C         20.05600       14.82800       20.44800
H         20.31900       13.90300       20.26800
H         20.47900       15.42300       19.79500
H         19.08100       14.91100       20.38000
C         23.82500       16.03400       23.66600
H         24.36200       15.75000       22.89800
H         24.09600       15.52600       24.46000
H         23.96600       16.99100       23.82800
C         19.09000       15.82100       25.37400
H         18.30300       15.27100       25.17700
H         18.81400       16.75500       25.48600
H         19.51400       15.50400       26.19700
C         25.64900       23.09500       22.78400
H         25.49600       24.00800       22.56700
N         24.59300       22.29200       22.97900
N         22.58100       20.75000       23.05200
C         26.96200       22.64600       22.88600
H         27.69100       23.24500       22.77100
N         16.05700       16.37600       22.40700
C         27.19200       21.29700       23.15800
H         28.08100       20.97700       23.24800
C         26.16700       20.46000       23.29500
H         26.31900       19.54000       23.47300
N         13.67700       16.10900       22.33200
C         24.86000       20.95700       23.17300
C         23.64500       20.16100       23.28300
H         23.66700       19.24000       23.51800
C         21.36500       19.93100       23.00200
C         20.45100       20.05600       24.02200
H         20.61400       20.63600       24.75700
C         19.29400       19.31200       23.93800
H         18.67400       19.36700       24.65800
C         18.99500       18.52500       22.92400
C         19.96700       18.38100       21.88700
H         19.80500       17.79900       21.15300
C         21.13900       19.09500       21.96400
H         21.79700       18.99900       21.28500
C         17.71200       17.81600       22.77500
C         16.49700       18.47700       22.85600
H         16.37800       19.39800       23.05200
C         15.46800       17.55000       22.59300
C         13.97900       17.43700       22.69700
C         12.81300       18.15700       22.97200
H         12.74400       19.08900       23.14300
C         11.76600       17.22100       22.94200
H         10.84800       17.42600       23.08400
C         12.27700       15.93500       22.67600
C         11.73000       14.65200       22.71800
C         12.49900       13.47400       22.54200
C         10.29000       14.53100       22.95400
C          9.39400       14.67500       21.90000
C          8.03500       14.47400       22.11100
H          7.42200       14.57200       21.39200
C          7.57200       14.13100       23.37600
C          8.46700       13.98700       24.43000
H          8.15100       13.75300       25.29400
C          9.82700       14.18700       24.21800
C          9.85200       15.08000       20.44800
H          9.58900       16.00500       20.26800
H          9.42900       14.48500       19.79500
H         10.82700       14.99700       20.38000
C          6.08300       13.87400       23.66600
H          5.54600       14.15800       22.89800
H          5.81200       14.38200       24.46000
H          5.94200       12.91700       23.82800
C         10.81800       14.08700       25.37400
H         11.60500       14.63700       25.17700
H         11.09400       13.15300       25.48600
H         10.39400       14.40400       26.19700
C         25.64900        6.81300        7.12400
H         25.49600        5.90000        7.34100
N         24.59300        7.61600        6.92900
Ni        14.95400       14.95400        7.64400
N         22.58100        9.15800        6.85600
C         26.96200        7.26200        7.02200
H         27.69100        6.66300        7.13700
N         16.05700       13.53200        7.50100
C         27.19200        8.61100        6.75000
H         28.08100        8.93100        6.66000
C         26.16700        9.44800        6.61300
H         26.31900       10.36800        6.43500
N         13.67700       13.79900        7.57600
C         24.86000        8.95100        6.73500
C         23.64500        9.74700        6.62500
H         23.66700       10.66800        6.39000
C         21.36500        9.97700        6.90600
C         20.45100        9.85200        5.88600
H         20.61400        9.27200        5.15100
C         19.29400       10.59600        5.97000
H         18.67400       10.54100        5.25000
C         18.99500       11.38300        6.98400
C         19.96700       11.52700        8.02100
H         19.80500       12.10900        8.75500
C         21.13900       10.81300        7.94400
H         21.79700       10.90900        8.62300
C         17.71200       12.09200        7.13300
C         16.49700       11.43100        7.05200
H         16.37800       10.51000        6.85600
C         15.46800       12.35800        7.31500
C         13.97900       12.47100        7.21100
C         12.81300       11.75100        6.93600
H         12.74400       10.81900        6.76500
C         11.76600       12.68700        6.96600
H         10.84800       12.48200        6.82400
C         12.27700       13.97300        7.23200
C         11.73000       15.25600        7.19000
C         12.49900       16.43400        7.36600
C         10.29000       15.37700        6.95400
C          9.39400       15.23300        8.00800
C          8.03500       15.43400        7.79700
H          7.42200       15.33600        8.51600
C          7.57200       15.77700        6.53200
C          8.46700       15.92100        5.47800
H          8.15100       16.15500        4.61400
C          9.82700       15.72100        5.69000
C          9.85200       14.82800        9.46000
H          9.58900       13.90300        9.64000
H          9.42900       15.42300       10.11300
H         10.82700       14.91100        9.52800
C          6.08300       16.03400        6.24200
H          5.54600       15.75000        7.01000
H          5.81200       15.52600        5.44800
H          5.94200       16.99100        6.08000
C         10.81800       15.82100        4.53400
H         11.60500       15.27100        4.73100
H         11.09400       16.75500        4.42200
H         10.39400       15.50400        3.71100
C          4.25900       23.09500        7.12400
H          4.41200       24.00800        7.34100
N          5.31500       22.29200        6.92900
N          7.32700       20.75000        6.85600
C          2.94600       22.64600        7.02200
H          2.21700       23.24500        7.13700
N         13.85100       16.37600        7.50100
C          2.71600       21.29700        6.75000
H          1.82700       20.97700        6.66000
C          3.74100       20.46000        6.61300
H          3.58900       19.54000        6.43500
N         16.23100       16.10900        7.57600
C          5.04800       20.95700        6.73500
C          6.26300       20.16100        6.62500
H          6.24100       19.24000        6.39000
C          8.54300       19.93100        6.90600
C          9.45700       20.05600        5.88600
H          9.29400       20.63600        5.15100
C         10.61400       19.31200        5.97000
H         11.23400       19.36700        5.25000
C         10.91300       18.52500        6.98400
C          9.94100       18.38100        8.02100
H         10.10300       17.79900        8.75500
C          8.76900       19.09500        7.94400
H          8.11100       18.99900        8.62300
C         12.19600       17.81600        7.13300
C         13.41100       18.47700        7.05200
H         13.53000       19.39800        6.85600
C         14.44000       17.55000        7.31500
C         15.92900       17.43700        7.21100
C         17.09500       18.15700        6.93600
H         17.16400       19.08900        6.76500
C         18.14200       17.22100        6.96600
H         19.06000       17.42600        6.82400
C         17.63100       15.93500        7.23200
C         18.17800       14.65200        7.19000
C         17.40900       13.47400        7.36600
C         19.61800       14.53100        6.95400
C         20.51400       14.67500        8.00800
C         21.87300       14.47400        7.79700
H         22.48600       14.57200        8.51600
C         22.33600       14.13100        6.53200
C         21.44100       13.98700        5.47800
H         21.75700       13.75300        4.61400
C         20.08100       14.18700        5.69000
C         20.05600       15.08000        9.46000
H         20.31900       16.00500        9.64000
H         20.47900       14.48500       10.11300
H         19.08100       14.99700        9.52800
C         23.82500       13.87400        6.24200
H         24.36200       14.15800        7.01000
H         24.09600       14.38200        5.44800
H         23.96600       12.91700        6.08000
C         19.09000       14.08700        4.53400
H         18.30300       14.63700        4.73100
H         18.81400       13.15300        4.42200
H         19.51400       14.40400        3.71100
C          7.12400       25.64900        6.81300
H          7.34100       25.49600        5.90000
N          6.92900       24.59300        7.61600
Ni         7.64400       14.95400       14.95400
N          6.85600       22.58100        9.15800
C          7.02200       26.96200        7.26200
H          7.13700       27.69100        6.66300
N          7.50100       16.05700       13.53200
C          6.75000       27.19200        8.61100
H          6.66000       28.08100        8.93100
C          6.61300       26.16700        9.44800
H          6.43500       26.31900       10.36800
N          7.57600       13.67700       13.79900
C          6.73500       24.86000        8.95100
C          6.62500       23.64500        9.74700
H          6.39000       23.66700       10.66800
C          6.90600       21.36500        9.97700
C          5.88600       20.45100        9.85200
H          5.15100       20.61400        9.27200
C          5.97000       19.29400       10.59600
H          5.25000       18.67400       10.54100
C          6.98400       18.99500       11.38300
C          8.02100       19.96700       11.52700
H          8.75500       19.80500       12.10900
C          7.94400       21.13900       10.81300
H          8.62300       21.79700       10.90900
C          7.13300       17.71200       12.09200
C          7.05200       16.49700       11.43100
H          6.85600       16.37800       10.51000
C          7.31500       15.46800       12.35800
C          7.21100       13.97900       12.47100
C          6.93600       12.81300       11.75100
H          6.76500       12.74400       10.81900
C          6.96600       11.76600       12.68700
H          6.82400       10.84800       12.48200
C          7.23200       12.27700       13.97300
C          7.19000       11.73000       15.25600
C          7.36600       12.49900       16.43400
C          6.95400       10.29000       15.37700
C          8.00800        9.39400       15.23300
C          7.79700        8.03500       15.43400
H          8.51600        7.42200       15.33600
C          6.53200        7.57200       15.77700
C          5.47800        8.46700       15.92100
H          4.61400        8.15100       16.15500
C          5.69000        9.82700       15.72100
C          9.46000        9.85200       14.82800
H          9.64000        9.58900       13.90300
H         10.11300        9.42900       15.42300
H          9.52800       10.82700       14.91100
C          6.24200        6.08300       16.03400
H          7.01000        5.54600       15.75000
H          5.44800        5.81200       15.52600
H          6.08000        5.94200       16.99100
C          4.53400       10.81800       15.82100
H          4.73100       11.60500       15.27100
H          4.42200       11.09400       16.75500
H          3.71100       10.39400       15.50400
C          7.12400        4.25900       23.09500
H          7.34100        4.41200       24.00800
N          6.92900        5.31500       22.29200
N          6.85600        7.32700       20.75000
C          7.02200        2.94600       22.64600
H          7.13700        2.21700       23.24500
N          7.50100       13.85100       16.37600
C          6.75000        2.71600       21.29700
H          6.66000        1.82700       20.97700
C          6.61300        3.74100       20.46000
H          6.43500        3.58900       19.54000
N          7.57600       16.23100       16.10900
C          6.73500        5.04800       20.95700
C          6.62500        6.26300       20.16100
H          6.39000        6.24100       19.24000
C          6.90600        8.54300       19.93100
C          5.88600        9.45700       20.05600
H          5.15100        9.29400       20.63600
C          5.97000       10.61400       19.31200
H          5.25000       11.23400       19.36700
C          6.98400       10.91300       18.52500
C          8.02100        9.94100       18.38100
H          8.75500       10.10300       17.79900
C          7.94400        8.76900       19.09500
H          8.62300        8.11100       18.99900
C          7.13300       12.19600       17.81600
C          7.05200       13.41100       18.47700
H          6.85600       13.53000       19.39800
C          7.31500       14.44000       17.55000
C          7.21100       15.92900       17.43700
C          6.93600       17.09500       18.15700
H          6.76500       17.16400       19.08900
C          6.96600       18.14200       17.22100
H          6.82400       19.06000       17.42600
C          7.23200       17.63100       15.93500
C          7.19000       18.17800       14.65200
C          7.36600       17.40900       13.47400
C          6.95400       19.61800       14.53100
C          8.00800       20.51400       14.67500
C          7.79700       21.87300       14.47400
H          8.51600       22.48600       14.57200
C          6.53200       22.33600       14.13100
C          5.47800       21.44100       13.98700
H          4.61400       21.75700       13.75300
C          5.69000       20.08100       14.18700
C          9.46000       20.05600       15.08000
H          9.64000       20.31900       16.00500
H         10.11300       20.47900       14.48500
H          9.52800       19.08100       14.99700
C          6.24200       23.82500       13.87400
H          7.01000       24.36200       14.15800
H          5.44800       24.09600       14.38200
H          6.08000       23.96600       12.91700
C          4.53400       19.09000       14.08700
H          4.73100       18.30300       14.63700
H          4.42200       18.81400       13.15300
H          3.71100       19.51400       14.40400
